Circuit: * C:\work\E344\E344\LTSpice\21750793.asc

V2: Removing PWL point (0.199,1.66)
Direct Newton iteration failed to find .op point.  (Use ".option noopiter" to skip.)
Starting Gmin stepping
Gmin = 10
Gmin = 1.07374
Gmin = 0.115292
Gmin = 0.0123794
Gmin = 0.00132923
vernier = 0.5
vernier = 0.25
vernier = 0.125
vernier = 0.0625
Gmin = 0.00100083
vernier = 0.03125
vernier = 0.015625
vernier = 0.0078125
vernier = 0.00390625
vernier = 0.00195313
Gmin = 0.00100083
vernier = 0.000976563
vernier = 0.000488281
Gmin = 0
Gmin stepping failed

Starting source stepping with srcstepmethod=0
Source Step = 3.0303%
vernier = 0.25
Source Step = 1.70455%
Source Step = 3.59848%
Source Step = 5.49242%
Source Step = 7.38636%
Source Step = 9.2803%
vernier = 0.09375
Source Step = 11.9318%
Source Step = 14.7727%
Source Step = 17.6136%
Source Step = 20.4545%
Source Step = 23.2955%
vernier = 0.140625
Source Step = 27.1307%
Source Step = 31.392%
Source Step = 35.6534%
Source Step = 39.9148%
Source Step = 44.1761%
vernier = 0.0351563
Source Step = 43.8033%
Source Step = 43.8699%
Source Step = 43.9364%
Source Step = 44.003%
Source Step = 44.0696%
vernier = 0.0032959
Source Step = 44.1428%
Source Step = 44.2427%
Source Step = 44.3426%
Source Step = 44.4425%
Source Step = 44.5423%
vernier = 0.00494385
Source Step = 44.6472%
Source Step = 44.797%
Source Step = 44.9468%
Source Step = 45.0967%
Source Step = 45.2465%
Source Step = 45.3963%
vernier = 0.00741577
Source Step = 45.621%
Source Step = 45.8457%
Source Step = 46.0704%
Source Step = 46.2952%
Source Step = 46.5199%
vernier = 0.0111237
Source Step = 46.8457%
Source Step = 47.1828%
Source Step = 47.5199%
Source Step = 47.857%
Source Step = 48.1941%
vernier = 0.0166855
Source Step = 48.666%
Source Step = 49.1716%
Source Step = 49.6772%
Source Step = 50.1828%
Source Step = 50.6884%
vernier = 0.0250282
Source Step = 51.371%
Source Step = 52.1295%
Source Step = 52.8879%
Source Step = 53.6463%
Source Step = 54.4048%
vernier = 0.0375423
Source Step = 55.3907%
Source Step = 56.5284%
Source Step = 57.666%
Source Step = 58.8037%
Source Step = 59.9413%
vernier = 0.0563135
Source Step = 61.3634%
Source Step = 63.0698%
Source Step = 64.7763%
Source Step = 66.4828%
Source Step = 68.1892%
vernier = 0.0844703
Source Step = 70.237%
Source Step = 72.7967%
Source Step = 75.3564%
Source Step = 77.9161%
Source Step = 80.4758%
vernier = 0.126705
Source Step = 83.4195%
Source Step = 87.2591%
Source Step = 91.0986%
Source Step = 92.3645%
Source Step = 92.4245%
Source Step = 92.4845%
Source Step = 92.5444%
Source Step = 92.6044%
Source Step = 92.6644%
Source Step = 92.7244%
Source Step = 92.7844%
Source Step = 92.8444%
Source Step = 92.9044%
Source Step = 92.9644%
Source Step = 93.0244%
Source Step = 93.0844%
Source Step = 93.1444%
Source Step = 93.2044%
Source Step = 93.2644%
Source Step = 93.3244%
Source Step = 93.3843%
Source Step = 93.4443%
Source Step = 93.5043%
Source Step = 93.5643%
Starting source stepping with srcstepmethod=1
Source Step = 3.0303%
Source Step = 33.3333%
Source Step = 63.6364%
Source Step = 93.9394%
Source Step = 100%
vernier = 0.015625
Source Step = 99.8787%
Source Step = 99.9083%
Source Step = 99.9379%
Source Step = 99.9674%
Source Step = 99.997%
Source stepping failed

Pseudo Transient succeeded in finding the operating point at 463.327 ms.

Date: Thu Aug 13 20:36:00 2020
Total elapsed time: 18.629 seconds.

tnom = 27
temp = 27
method = modified trap
totiter = 57180
traniter = 10058
tranpoints = 5030
accept = 5028
rejected = 336
matrix size = 428
fillins = 1350
solver = Normal
Thread vector: 19.8/11.3[11] 7.9/3.0[11] 7.2/2.1[11] 1.3/1.7[1]  2592/500
Matrix Compiler1: 172.22 KB object code size  26.4/10.7/[7.3]
Matrix Compiler2: 59.35 KB object code size  4.9/6.2/[2.5]

