Circuit: * C:\work\E344\E344\LTSpice\amplifiers.asc

Direct Newton iteration for .op point succeeded.

Date: Fri Aug 14 11:11:30 2020
Total elapsed time: 1.377 seconds.

tnom = 27
temp = 27
method = modified trap
totiter = 200057
traniter = 200034
tranpoints = 100018
accept = 100018
rejected = 0
matrix size = 28
fillins = 42
solver = Normal
Matrix Compiler1: 3.50 KB object code size  0.5/0.3/[0.2]
Matrix Compiler2: off  [0.2]/0.3/0.2

