Circuit: * C:\work\E344\E344\LTSpice\amplifiers.asc

WARNING: Node NC_01 is floating.

WARNING: Less than two connections to node NC_01.  This node is used by R2.
Direct Newton iteration for .op point succeeded.

Date: Sun Aug 09 16:21:04 2020
Total elapsed time: 2.043 seconds.

tnom = 27
temp = 27
method = modified trap
totiter = 200072
traniter = 200034
tranpoints = 100018
accept = 100018
rejected = 0
matrix size = 30
fillins = 60
solver = Normal
Matrix Compiler1: 5.24 KB object code size  0.7/0.3/[0.3]
Matrix Compiler2: 3.35 KB object code size  0.2/0.3/[0.2]

