Circuit: * C:\work\E344\E344\LTSpice\copy.asc

Direct Newton iteration failed to find .op point.  (Use ".option noopiter" to skip.)
Starting Gmin stepping
Gmin = 10
Gmin = 1.07374
Gmin = 0.115292
Gmin = 0.0123794
Gmin = 0.00132923
vernier = 0.5
vernier = 0.25
vernier = 0.125
vernier = 0.0625
Gmin = 0.00100083
vernier = 0.03125
vernier = 0.015625
vernier = 0.0078125
vernier = 0.00390625
vernier = 0.00195313
Gmin = 0.00100083
vernier = 0.000976563
vernier = 0.000488281
Gmin = 0
Gmin stepping failed

Starting source stepping with srcstepmethod=0
Source Step = 3.0303%
vernier = 0.25
Source Step = 0.0828598%
Source Step = 0.201231%
Source Step = 0.319602%
Source Step = 0.437973%
Source Step = 0.556345%
vernier = 0.00585938
Source Step = 0.710227%
Source Step = 0.887784%
Source Step = 1.06534%
Source Step = 1.2429%
Source Step = 1.42045%
vernier = 0.00878906
Source Step = 1.6424%
Source Step = 1.90874%
Source Step = 2.17507%
Source Step = 2.44141%
Source Step = 2.70774%
vernier = 0.0131836
Source Step = 3.02734%
Source Step = 3.42685%
Source Step = 3.82635%
Source Step = 4.22585%
Source Step = 4.62536%
vernier = 0.0197754
Source Step = 5.08478%
Source Step = 5.68404%
Source Step = 6.28329%
Source Step = 6.88255%
Source Step = 7.4818%
vernier = 0.0296631
Source Step = 8.14098%
Source Step = 9.03986%
Source Step = 9.93874%
Source Step = 10.8376%
Source Step = 11.7365%
vernier = 0.0444946
Source Step = 12.6803%
Source Step = 14.0287%
Source Step = 15.377%
Source Step = 16.7253%
Source Step = 18.0736%
Source Step = 19.4219%
vernier = 0.0667419
Source Step = 21.4444%
Source Step = 23.4669%
Source Step = 25.4894%
Source Step = 27.5119%
Source Step = 29.5344%
vernier = 0.100113
Source Step = 32.467%
Source Step = 35.5007%
Source Step = 38.5344%
Source Step = 41.5681%
Source Step = 44.071%
vernier = 0.00625706
Source Step = 44.0378%
Source Step = 44.0852%
Source Step = 44.1326%
Source Step = 44.18%
Source Step = 44.2274%
vernier = 0.0023464
Source Step = 44.2795%
Source Step = 44.3506%
Source Step = 44.4217%
Source Step = 44.4928%
Source Step = 44.5639%
vernier = 0.00351959
Source Step = 44.6386%
Source Step = 44.7452%
Source Step = 44.8519%
Source Step = 44.9586%
Source Step = 45.0652%
Source Step = 45.1719%
vernier = 0.00527939
Source Step = 45.3318%
Source Step = 45.4918%
Source Step = 45.6518%
Source Step = 45.8118%
Source Step = 45.9718%
vernier = 0.00791909
Source Step = 46.2037%
Source Step = 46.4437%
Source Step = 46.6837%
Source Step = 46.9237%
Source Step = 47.1636%
vernier = 0.0118786
Source Step = 47.4996%
Source Step = 47.8596%
Source Step = 48.2195%
Source Step = 48.5795%
Source Step = 48.9394%
vernier = 0.0178179
Source Step = 49.4254%
Source Step = 49.9653%
Source Step = 50.5053%
Source Step = 51.0452%
Source Step = 51.5851%
vernier = 0.0267269
Source Step = 52.287%
Source Step = 53.097%
Source Step = 53.9069%
Source Step = 54.7168%
Source Step = 55.5267%
vernier = 0.0400904
Source Step = 56.5391%
Source Step = 57.7539%
Source Step = 58.9688%
Source Step = 60.1836%
Source Step = 61.3985%
vernier = 0.0601356
Source Step = 62.8563%
Source Step = 64.6786%
Source Step = 66.5009%
Source Step = 68.3232%
Source Step = 70.1455%
vernier = 0.0902034
Source Step = 72.2411%
Source Step = 74.9746%
Source Step = 77.708%
Source Step = 80.4414%
Source Step = 83.1749%
vernier = 0.135305
Source Step = 86.1816%
Source Step = 90.2818%
Source Step = 94.3819%
vernier = 0.0338263
Source Step = 94.0232%
Source Step = 94.0872%
Source Step = 94.1513%
Source Step = 94.2154%
Source Step = 94.2794%
Source Step = 94.3435%
Source Step = 94.4076%
Source Step = 94.4716%
Source Step = 94.5357%
Source Step = 94.5998%
Source Step = 94.6638%
Source Step = 94.7279%
Source Step = 94.792%
Source Step = 94.856%
Source Step = 94.9201%
Source Step = 94.9842%
Source Step = 95.0482%
Source Step = 95.1123%
Source Step = 95.1764%
Source Step = 95.2404%
Source Step = 95.3045%
Source Step = 95.3685%
Source Step = 95.4326%
Source Step = 95.4967%
Source Step = 95.5607%
Starting source stepping with srcstepmethod=1
Source Step = 3.0303%
Source Step = 33.3333%
Source Step = 63.6364%
Source Step = 93.9394%
Source Step = 99.5682%
Source Step = 99.7753%
Source Step = 99.8049%
Source Step = 99.8345%
Source Step = 99.8641%
Source Step = 99.8937%
Source Step = 99.9233%
Source Step = 99.9529%
Source Step = 99.9825%
Source Step = 100%
Source stepping failed

Pseudo Transient succeeded in finding the operating point at 430.58 ms.

Date: Thu Aug 13 20:47:17 2020
Total elapsed time: 23.224 seconds.

tnom = 27
temp = 27
method = modified trap
totiter = 66076
traniter = 10102
tranpoints = 5052
accept = 5047
rejected = 352
matrix size = 430
fillins = 1385
solver = Normal
Thread vector: 20.3/10.0[11] 7.2/3.0[11] 8.6/4.2[11] 1.3/5.4[1]  2592/500
Matrix Compiler1: 175.04 KB object code size  33.3/14.3/[7.7]
Matrix Compiler2: 59.99 KB object code size  5.7/7.3/[2.4]

