Circuit: * C:\work\E344\E344\LTSpice\copy.asc

V2: Removing PWL point (0.199,1.66)
Early termination of direct N-R iteration.
Direct Newton iteration failed to find .op point.  (Use ".option noopiter" to skip.)
Starting Gmin stepping
Gmin = 10
vernier = 0.5
vernier = 0.25
vernier = 0.125
Gmin = 5.5165
vernier = 0.0625
vernier = 0.03125
vernier = 0.015625
vernier = 0.0078125
Gmin = 5.49501
vernier = 0.00390625
vernier = 0.00195313
vernier = 0.000976563
vernier = 0.000488281
Gmin = 5.50104
Gmin = 0
Gmin stepping failed

Starting source stepping with srcstepmethod=0
Source Step = 3.0303%
vernier = 0.25
Source Step = 1.70455%
Source Step = 3.59848%
Source Step = 5.49242%
Source Step = 7.38636%
Source Step = 9.2803%
vernier = 0.09375
Source Step = 11.9318%
Source Step = 14.7727%
Source Step = 17.6136%
Source Step = 20.4545%
Source Step = 23.2955%
vernier = 0.140625
Source Step = 27.1307%
Source Step = 31.392%
Source Step = 35.6534%
Source Step = 39.9148%
Source Step = 44.1761%
vernier = 0.210938
Source Step = 49.7159%
Source Step = 56.108%
Source Step = 62.5%
Source Step = 68.892%
Source Step = 71.4788%
Source Step = 71.5787%
Source Step = 71.6786%
Source Step = 71.7785%
Source Step = 71.8783%
vernier = 0.00494385
Source Step = 71.9832%
Source Step = 72.133%
Source Step = 72.2828%
Source Step = 72.4326%
Source Step = 72.5825%
Source Step = 72.7323%
vernier = 0.00741577
Source Step = 72.957%
Source Step = 73.1817%
Source Step = 73.4064%
Source Step = 73.6311%
Source Step = 73.8559%
vernier = 0.0111237
Source Step = 74.1817%
Source Step = 74.5188%
Source Step = 74.8559%
Source Step = 75.193%
Source Step = 75.53%
vernier = 0.0166855
Source Step = 76.0019%
Source Step = 76.5076%
Source Step = 77.0132%
Source Step = 77.5188%
Source Step = 78.0244%
vernier = 0.0250282
Source Step = 78.707%
Source Step = 79.4654%
Source Step = 80.2239%
Source Step = 80.9823%
Source Step = 81.7407%
vernier = 0.0375423
Source Step = 82.7267%
Source Step = 83.8644%
Source Step = 85.002%
Source Step = 86.1396%
Source Step = 87.2773%
vernier = 0.0563135
Source Step = 88.6993%
Source Step = 90.4058%
vernier = 0.0140784
Source Step = 90.2565%
Starting source stepping with srcstepmethod=1
Source Step = 3.0303%
Source Step = 6.77083%
Source stepping failed

Pseudo Transient succeeded in finding the operating point at 300.332 ms.

Date: Fri Aug 14 16:05:57 2020
Total elapsed time: 3.899 seconds.

tnom = 27
temp = 27
method = modified trap
totiter = 102720
traniter = 10046
tranpoints = 5024
accept = 5024
rejected = 1567
matrix size = 218
fillins = 827
solver = Normal
Thread vector: 13.2/8.2[4] 4.2/2.1[4] 7.1/2.5[4] 0.7/3.4[1]  2592/500
Matrix Compiler1: 87.98 KB object code size  12.2/5.0/[3.6]
Matrix Compiler2: 32.64 KB object code size  3.2/3.6/[1.3]

