Circuit: * C:\work\E344\E344\LTSpice\voltageRegulators.asc

Questionable use of curly braces in "b§e_abmgate yint 0 v={if(v(a)>{{vthresh}}&v(b)>{{vthresh}},{{vdd}},{{vss}})}"
    Error: undefined symbol in: "if([v](a)>((vthresh))&v(b)>((vthresh)),((vdd)),((vss)))"
Questionable use of curly braces in "b§e_abmgate yint 0 v={if(v(a)>{{vthresh}}|v(b)>{{vthresh}}|v(c)>{{vthresh}},{{vdd}},{{vss}})}"
    Error: undefined symbol in: "if([v](a)>((vthresh))|v(b)>((vthresh))|v(c)>((vthresh)),((vdd)),((vss)))"
Questionable use of curly braces in "b§e_abmgate yint 0 v={if(v(a)>{{vthresh}},{{vdd}},{{vss}})}"
    Error: undefined symbol in: "if([v](a)>((vthresh)),((vdd)),((vss)))"
WARNING: Less than two connections to node LM7806.  This node is used by R3.
Direct Newton iteration failed to find .op point.  (Use ".option noopiter" to skip.)
Starting Gmin stepping
Gmin = 10
Gmin = 1.07374
Gmin = 0.115292
Gmin = 0.0123794
Gmin = 0.00132923
Gmin = 0.000142725
Gmin = 1.5325e-005
vernier = 0.5
vernier = 0.666667
Gmin = 4.6652e-006
vernier = 0.888888
Gmin = 7.9138e-007
vernier = 1
Gmin = 8.6905e-008
Gmin = 9.33136e-009
Gmin = 1.00195e-009
Gmin = 1.07583e-010
Gmin = 1.15517e-011
Gmin = 1.24035e-012
Gmin = 1.33182e-013
Gmin = 0
Gmin stepping succeeded in finding the operating point.

Ignoring empty pin current: Ix(u1:fb)
Ignoring empty pin current: Ix(u1:fb)

Date: Wed Aug 12 18:31:57 2020
Total elapsed time: 22.225 seconds.

tnom = 27
temp = 27
method = modified trap
totiter = 2206355
traniter = 2205719
tranpoints = 745016
accept = 563730
rejected = 181286
matrix size = 131
fillins = 96
solver = Normal
Thread vector: 6.8/4.6[2] 3.4/2.1[2] 2.7/2.0[2] 0.2/0.4[1]  2592/500
Matrix Compiler1: 10.43 KB object code size  1.6/0.9/[0.6]
Matrix Compiler2: 10.97 KB object code size  0.7/1.2/[0.5]

