Circuit: * C:\work\E344\E344\LTSpice\voltageRegulators.asc

Questionable use of curly braces in "b§e_abmgate yint 0 v={if(v(a)>{{vthresh}}&v(b)>{{vthresh}},{{vdd}},{{vss}})}"
    Error: undefined symbol in: "if([v](a)>((vthresh))&v(b)>((vthresh)),((vdd)),((vss)))"
Questionable use of curly braces in "b§e_abmgate yint 0 v={if(v(a)>{{vthresh}}|v(b)>{{vthresh}}|v(c)>{{vthresh}},{{vdd}},{{vss}})}"
    Error: undefined symbol in: "if([v](a)>((vthresh))|v(b)>((vthresh))|v(c)>((vthresh)),((vdd)),((vss)))"
Questionable use of curly braces in "b§e_abmgate yint 0 v={if(v(a)>{{vthresh}},{{vdd}},{{vss}})}"
    Error: undefined symbol in: "if([v](a)>((vthresh)),((vdd)),((vss)))"
Direct Newton iteration failed to find .op point.  (Use ".option noopiter" to skip.)
Starting Gmin stepping
Gmin = 10
Gmin = 1.07374
Gmin = 0.115292
Gmin = 0.0123794
Gmin = 0.00132923
Gmin = 0.000142725
Gmin = 1.5325e-005
Gmin = 1.6455e-006
Gmin = 1.76685e-007
Gmin = 1.89714e-008
Gmin = 2.03704e-009
Gmin = 2.18725e-010
Gmin = 2.34854e-011
Gmin = 2.52173e-012
Gmin = 2.70769e-013
Gmin = 0
Gmin stepping succeeded in finding the operating point.

Ignoring empty pin current: Ix(u1:fb)
Ignoring empty pin current: Ix(u1:fb)

Date: Sun Aug 09 16:50:46 2020
Total elapsed time: 6.196 seconds.

tnom = 27
temp = 27
method = modified trap
totiter = 514287
traniter = 513746
tranpoints = 171353
accept = 128227
rejected = 43126
matrix size = 128
fillins = 86
solver = Normal
Thread vector: 7.1/5.5[2] 3.3/2.2[2] 2.7/1.9[2] 0.2/0.5[1]  2592/500
Matrix Compiler1: 10.35 KB object code size  1.6/0.9/[0.6]
Matrix Compiler2: 10.61 KB object code size  0.8/1.3/[0.5]

