Circuit: * C:\work\E344\E344\Ass2\LTSpice\analogue.asc

WARNING: Less than two connections to node NC_02.  This node is used by R2.
Direct Newton iteration failed to find .op point.  (Use ".option noopiter" to skip.)
Starting Gmin stepping
Gmin = 10
Gmin = 1.07374
Gmin = 0.115292
Gmin = 0.0123794
Gmin = 0.00132923
Gmin = 0.000142725
Gmin = 1.5325e-005
Gmin = 1.6455e-006
Gmin = 1.76685e-007
Gmin = 1.89714e-008
Gmin = 2.03704e-009
Gmin = 2.18725e-010
Gmin = 2.34854e-011
Gmin = 2.52173e-012
Gmin = 2.70769e-013
Gmin = 0
Gmin stepping succeeded in finding the operating point.


Date: Thu Sep 24 18:45:27 2020
Total elapsed time: 0.364 seconds.

tnom = 27
temp = 27
method = modified trap
totiter = 102888
traniter = 102525
tranpoints = 42302
accept = 40039
rejected = 2263
matrix size = 13
fillins = 0
solver = Normal
Matrix Compiler1: 548 bytes object code size  0.3/0.2/[0.2]
Matrix Compiler2: 857 bytes object code size  0.1/0.1/[0.1]

