Circuit: * C:\work\E344\E344\Ass2\LTSpice\Deyzel_21750793_A2.asc

Early termination of direct N-R iteration.
Direct Newton iteration failed to find .op point.  (Use ".option noopiter" to skip.)
Starting Gmin stepping
Gmin = 10
vernier = 0.5
vernier = 0.25
vernier = 0.125
Gmin = 5.49741
vernier = 0.0625
vernier = 0.03125
vernier = 0.015625
vernier = 0.0078125
Gmin = 5.51716
vernier = 0.00390625
vernier = 0.00195313
vernier = 0.000976563
vernier = 0.000488281
Gmin = 5.50104
Gmin = 0
Gmin stepping failed

Starting source stepping with srcstepmethod=0
Source Step = 3.0303%
vernier = 0.25
Source Step = 7.57576%
Source Step = 15.1515%
Source Step = 22.7273%
Source Step = 30.303%
vernier = 0.0625
Source Step = 29.6106%
Source Step = 29.6402%
Source Step = 29.6697%
Source Step = 29.6993%
Source Step = 29.7289%
Source Step = 29.7585%
vernier = 0.00146484
Source Step = 29.7985%
Source Step = 29.8429%
Source Step = 29.8873%
Source Step = 29.9316%
Source Step = 29.976%
vernier = 0.00219727
Source Step = 30.0337%
Source Step = 30.1003%
Source Step = 30.1669%
Source Step = 30.2335%
Source Step = 30.3001%
vernier = 0.0032959
Source Step = 30.3833%
Source Step = 30.4832%
Source Step = 30.5831%
Source Step = 30.6829%
Source Step = 30.7828%
vernier = 0.00494385
Source Step = 30.9027%
Source Step = 31.0525%
Source Step = 31.2023%
Source Step = 31.3521%
Source Step = 31.5019%
vernier = 0.00741577
Source Step = 31.6742%
Source Step = 31.8989%
Source Step = 32.1236%
Source Step = 32.3484%
Source Step = 32.5731%
vernier = 0.0111237
Source Step = 32.8203%
Source Step = 33.1573%
Source Step = 33.4944%
Source Step = 33.8315%
Source Step = 34.1686%
vernier = 0.0166855
Source Step = 34.5225%
Source Step = 35.0281%
Source Step = 35.5338%
Source Step = 36.0394%
Source Step = 36.545%
Source Step = 37.0506%
vernier = 0.0250282
Source Step = 37.8091%
Source Step = 38.5675%
Source Step = 39.3259%
Source Step = 40.0844%
Source Step = 40.8428%
vernier = 0.0375423
Source Step = 41.9425%
Source Step = 43.0802%
Source Step = 44.2178%
Source Step = 45.3555%
Source Step = 46.4931%
vernier = 0.0563135
Source Step = 48.0858%
Source Step = 49.7923%
Source Step = 51.4987%
Source Step = 53.2052%
Source Step = 54.9117%
vernier = 0.0844703
Source Step = 57.2154%
Source Step = 59.7751%
Source Step = 62.3348%
Source Step = 64.8945%
Source Step = 67.4542%
vernier = 0.126705
Source Step = 70.7819%
Source Step = 74.6214%
Source Step = 78.461%
Source Step = 82.3005%
Source Step = 86.1401%
vernier = 0.190058
Source Step = 90.9395%
vernier = 0.0475145
Source Step = 90.5436%
Starting source stepping with srcstepmethod=1
Source Step = 3.0303%
Source Step = 12.136%
Source stepping failed

Pseudo transient terminated at 100.911 s, solution accepted ready or not!
Heightened Def Con from 0.4735 to 0.4735
Heightened Def Con from 0.474024 to 0.474024
Heightened Def Con from 0.474155 to 0.474155
Heightened Def Con from 0.474246 to 0.474246
Heightened Def Con from 1.5401 to 1.5401
Heightened Def Con from 1.5402 to 1.5402
Heightened Def Con from 3.55094 to 3.55094
Heightened Def Con from 8.55488 to 8.55488
Heightened Def Con from 9.55883 to 9.55883
Heightened Def Con from 9.55896 to 9.55896
Heightened Def Con from 9.55905 to 9.55905
Heightened Def Con from 10.5378 to 10.5378
Heightened Def Con from 11.5538 to 11.5538
Heightened Def Con from 11.554 to 11.554
Heightened Def Con from 14.532 to 14.532
Heightened Def Con from 14.532 to 14.532
Heightened Def Con from 15.5544 to 15.5544
Heightened Def Con from 15.5549 to 15.5549
Heightened Def Con from 15.5552 to 15.5552
Heightened Def Con from 15.5552 to 15.5552
Heightened Def Con from 16.5396 to 16.5396
Heightened Def Con from 18.541 to 18.541
Heightened Def Con from 19.5508 to 19.5508
Heightened Def Con from 19.551 to 19.551
Heightened Def Con from 19.5511 to 19.5511
Heightened Def Con from 20.5307 to 20.5307
Heightened Def Con from 21.5683 to 21.5683
Heightened Def Con from 22.5563 to 22.5563
Heightened Def Con from 22.5564 to 22.5564
Heightened Def Con from 24.5748 to 24.5748
Heightened Def Con from 25.568 to 25.568
Heightened Def Con from 27.536 to 27.536
Heightened Def Con from 28.5607 to 28.5607
Heightened Def Con from 29.5447 to 29.5447
Heightened Def Con from 29.5452 to 29.5452

Date: Fri Sep 25 13:32:43 2020
Total elapsed time: 13.321 seconds.

tnom = 27
temp = 27
method = modified trap
totiter = 210193
traniter = 187974
tranpoints = 62641
accept = 59635
rejected = 3359
matrix size = 269
fillins = 2013
solver = Normal
Thread vector: 18.0/11.2[6] 12.0/3.8[6] 11.1/4.0[6] 1.0/1.4[1]  2592/500
Matrix Compiler1: 355.10 KB object code size  45.7/16.1/[12.2]
Matrix Compiler2: 57.55 KB object code size  5.8/4.9/[2.0]

