Circuit: * C:\work\E344\E344\Ass2\LTSpice\Deyzel_21750793_A2.asc

Early termination of direct N-R iteration.
Direct Newton iteration failed to find .op point.  (Use ".option noopiter" to skip.)
Starting Gmin stepping
Gmin = 10
vernier = 0.5
vernier = 0.25
vernier = 0.125
Gmin = 5.5165
vernier = 0.0625
vernier = 0.03125
vernier = 0.015625
vernier = 0.0078125
Gmin = 5.49501
vernier = 0.00390625
vernier = 0.00195313
vernier = 0.000976563
vernier = 0.000488281
Gmin = 5.50104
Gmin = 0
Gmin stepping failed

Starting source stepping with srcstepmethod=0
Source Step = 3.0303%
vernier = 0.25
Source Step = 7.57576%
Source Step = 15.1515%
Source Step = 22.7273%
Source Step = 28.9773%
vernier = 0.015625
Source Step = 28.8116%
Source Step = 28.8411%
Source Step = 28.8707%
Source Step = 28.9003%
Source Step = 28.9299%
vernier = 0.00146484
Source Step = 28.9625%
Source Step = 29.0069%
Source Step = 29.0513%
Source Step = 29.0956%
Source Step = 29.14%
vernier = 0.00219727
Source Step = 29.1866%
Source Step = 29.2532%
Source Step = 29.3198%
Source Step = 29.3864%
Source Step = 29.453%
Source Step = 29.5196%
vernier = 0.0032959
Source Step = 29.6194%
Source Step = 29.7193%
Source Step = 29.8192%
Source Step = 29.9191%
Source Step = 30.0189%
vernier = 0.00494385
Source Step = 30.1638%
Source Step = 30.3136%
Source Step = 30.4634%
Source Step = 30.6132%
Source Step = 30.763%
vernier = 0.00741577
Source Step = 30.9728%
Source Step = 31.1975%
Source Step = 31.4222%
Source Step = 31.6469%
Source Step = 31.8716%
vernier = 0.0111237
Source Step = 32.175%
Source Step = 32.5121%
Source Step = 32.8492%
Source Step = 33.1862%
Source Step = 33.5233%
vernier = 0.0166855
Source Step = 33.9615%
Source Step = 34.4672%
Source Step = 34.9728%
Source Step = 35.4784%
Source Step = 35.984%
vernier = 0.0250282
Source Step = 36.616%
Source Step = 37.3745%
Source Step = 38.1329%
Source Step = 38.8913%
Source Step = 39.6498%
vernier = 0.0375423
Source Step = 40.5599%
Source Step = 41.6975%
Source Step = 42.8352%
Source Step = 43.9728%
Source Step = 45.1105%
vernier = 0.0563135
Source Step = 46.4188%
Source Step = 48.1252%
Source Step = 49.8317%
Source Step = 51.5382%
Source Step = 53.2446%
vernier = 0.0844703
Source Step = 55.1218%
Source Step = 57.6815%
Source Step = 60.2412%
Source Step = 62.8009%
Source Step = 65.3606%
vernier = 0.126705
Source Step = 68.0483%
Source Step = 71.8878%
Source Step = 75.7274%
Source Step = 79.5669%
Source Step = 83.4065%
Source Step = 87.2461%
vernier = 0.190058
Source Step = 93.0054%
Source Step = 95.9031%
Source Step = 95.9931%
Source Step = 96.083%
Source Step = 96.173%
Source Step = 96.263%
Source Step = 96.353%
Source Step = 96.443%
Source Step = 96.533%
Source Step = 96.623%
Source Step = 96.713%
Source Step = 96.803%
Source Step = 96.893%
Source Step = 96.9829%
Source Step = 97.0729%
Source Step = 97.1629%
Source Step = 97.2529%
Source Step = 97.3429%
Source Step = 97.4329%
Source Step = 97.5229%
Source Step = 97.6129%
Source Step = 97.7029%
Source Step = 97.7928%
Source Step = 97.8828%
Source Step = 97.9728%
Source Step = 98.0628%
Source Step = 98.1528%
Source Step = 98.2428%
Source Step = 98.3328%
Source Step = 98.4228%
Starting source stepping with srcstepmethod=1
Source Step = 3.0303%
Source Step = 6.34766%
Source stepping failed

Pseudo transient terminated at 100.534 s, solution accepted ready or not!
Heightened Def Con from 0.429773 to 0.429773
Heightened Def Con from 0.8363 to 0.8363
Heightened Def Con from 1.23873 to 1.23873
Heightened Def Con from 2.0355 to 2.0355
Heightened Def Con from 2.44053 to 2.44053
Heightened Def Con from 2.8375 to 2.8375
Heightened Def Con from 2.83802 to 2.83802
Heightened Def Con from 3.2403 to 3.2403
Heightened Def Con from 3.64162 to 3.64162
Heightened Def Con from 4.0405 to 4.0405
Heightened Def Con from 4.43763 to 4.43763
Heightened Def Con from 4.8435 to 4.8435
Heightened Def Con from 5.2407 to 5.2407
Heightened Def Con from 5.24096 to 5.24096
Heightened Def Con from 5.6395 to 5.6395
Heightened Def Con from 6.0405 to 6.0405
Heightened Def Con from 6.04067 to 6.04067
Heightened Def Con from 6.44261 to 6.44261
Heightened Def Con from 6.68661 +++++++++++++++++++++++++++++++to 6.68661
Heightened Def Con from 6.83875 to 6.83875
Heightened Def Con from 7.2395 to 7.2395
Heightened Def Con from 7.6367 to 7.6367
Heightened Def Con from 7.63722 to 7.63722
Heightened Def Con from 8.0449 to 8.0449
Heightened Def Con from 8.0449 to 8.0449
Heightened Def Con from 8.04516 to 8.04516
Heightened Def Con from 8.8403 to 8.8403
Heightened Def Con from 9.24262 to 9.24262
Heightened Def Con from 10.0385 to 10.0385
Heightened Def Con from 10.039 to 10.039
Heightened Def Con from 10.4375 to 10.4375
Heightened Def Con from 10.438 to 10.438
Heightened Def Con from 10.4383 to 10.4383
Heightened Def Con from 11.2365 to 11.2365
Heightened Def Con from 11.6425 to 11.6425
Heightened Def Con from 12.0403 to 12.0403
Heightened Def Con from 12.6826 +++++++++++++++++++++++++++++++to 12.6826
Heightened Def Con from 12.6826 to 12.6826
Heightened Def Con from 12.8407 to 12.8407
Heightened Def Con from 12.841 to 12.841
Heightened Def Con from 13.2425 to 13.2425
Heightened Def Con from 13.6385 to 13.6385
Heightened Def Con from 13.639 to 13.639
Heightened Def Con from 13.6393 to 13.6393
Heightened Def Con from 14.4388 to 14.4388
Heightened Def Con from 14.8347 to 14.8347
Heightened Def Con from 15.2367 to 15.2367
Heightened Def Con from 15.2372 to 15.2372
Heightened Def Con from 15.6367 to 15.6367
Heightened Def Con from 15.6372 to 15.6372
Heightened Def Con from 16.0375 to 16.0375
Heightened Def Con from 16.038 to 16.038
Heightened Def Con from 16.4367 to 16.4367
Heightened Def Con from 16.8435 to 16.8435
Heightened Def Con from 18.0415 to 18.0415
Heightened Def Con from 18.4407 to 18.4407
Heightened Def Con from 18.4409 to 18.4409
Heightened Def Con from 18.8386 to 18.8386
Heightened Def Con from 19.0844 to 19.0844
Heightened Def Con from 19.2425 to 19.2425
Heightened Def Con from 19.6349 to 19.6349
Heightened Def Con from 20.0376 to 20.0376
Heightened Def Con from 20.4407 to 20.4407
Heightened Def Con from 20.4412 to 20.4412
Heightened Def Con from 20.8403 to 20.8403
Heightened Def Con from 21.0757 to 21.0757
Heightened Def Con from 21.2407 to 21.2407
Heightened Def Con from 21.2412 to 21.2412
Heightened Def Con from 21.6375 to 21.6375
Heightened Def Con from 21.638 to 21.638
Heightened Def Con from 22.0388 to 22.0388
Heightened Def Con from 22.0389 to 22.0389
Heightened Def Con from 22.4355 to 22.4355
Heightened Def Con from 22.8367 to 22.8367
Heightened Def Con from 23.2363 to 23.2363
Heightened Def Con from 23.2363 to 23.2363
Heightened Def Con from 23.6395 to 23.6395
Heightened Def Con from 24.039 to 24.039
Heightened Def Con from 24.4345 to 24.4345
Heightened Def Con from 24.435 to 24.435
Heightened Def Con from 24.8435 to 24.8435
Heightened Def Con from 25.2443 to 25.2443
Heightened Def Con from 25.4826 +++++++++++++++++++++++++++++++to 25.4826
Heightened Def Con from 25.4826 to 25.4826
Heightened Def Con from 25.6385 to 25.6385
Heightened Def Con from 25.6393 to 25.6393
Heightened Def Con from 26.0377 to 26.0377
Heightened Def Con from 26.0379 to 26.0379
Heightened Def Con from 26.4407 to 26.4407
Heightened Def Con from 26.8385 to 26.8385
Heightened Def Con from 26.839 to 26.839
Heightened Def Con from 27.2376 to 27.2376
Heightened Def Con from 27.6386 to 27.6386
Heightened Def Con from 28.0431 to 28.0431
Heightened Def Con from 28.0432 to 28.0432
Heightened Def Con from 28.4395 to 28.4395
Heightened Def Con from 28.8435 to 28.8435
Heightened Def Con from 29.2447 to 29.2447
Heightened Def Con from 29.2452 to 29.2452
Heightened Def Con from 29.6355 to 29.6355

Date: Thu Sep 24 13:47:36 2020
Total elapsed time: 60.790 seconds.

tnom = 27
temp = 27
method = modified trap
totiter = 278866
traniter = 217239
tranpoints = 77649
accept = 70088
rejected = 8617
matrix size = 293
fillins = 3394
solver = Normal
Thread vector: 16.5/10.8[6] 12.4/6.5[6] 13.3/4.7[6] 1.2/1.8[1]  2592/500
Matrix Compiler1: 864.18 KB object code size  125.3/44.9/[31.4]
Matrix Compiler2: 82.44 KB object code size  8.2/5.7/[2.7]

