Circuit: * C:\work\E344\E344\Ass2\LTSpice\Deyzel_21750793_A2.asc

Early termination of direct N-R iteration.
Direct Newton iteration failed to find .op point.  (Use ".option noopiter" to skip.)
Starting Gmin stepping
Gmin = 10
vernier = 0.5
vernier = 0.25
vernier = 0.125
Gmin = 5.5165
vernier = 0.0625
vernier = 0.03125
vernier = 0.015625
vernier = 0.0078125
Gmin = 5.49501
vernier = 0.00390625
vernier = 0.00195313
vernier = 0.000976563
vernier = 0.000488281
Gmin = 5.50104
Gmin = 0
Gmin stepping failed

Starting source stepping with srcstepmethod=0
Source Step = 3.0303%
vernier = 0.25
Source Step = 7.57576%
Source Step = 15.1515%
Source Step = 22.7273%
Source Step = 28.9773%
vernier = 0.015625
Source Step = 28.8116%
Source Step = 28.8411%
Source Step = 28.8707%
Source Step = 28.9003%
Source Step = 28.9299%
vernier = 0.00146484
Source Step = 28.9625%
Source Step = 29.0069%
Source Step = 29.0513%
Source Step = 29.0956%
Source Step = 29.14%
vernier = 0.00219727
Source Step = 29.1866%
Source Step = 29.2532%
Source Step = 29.3198%
Source Step = 29.3864%
Source Step = 29.453%
Source Step = 29.5196%
vernier = 0.0032959
Source Step = 29.6194%
Source Step = 29.7193%
Source Step = 29.8192%
Source Step = 29.9191%
Source Step = 30.0189%
vernier = 0.00494385
Source Step = 30.1638%
Source Step = 30.3136%
Source Step = 30.4634%
Source Step = 30.6132%
Source Step = 30.763%
vernier = 0.00741577
Source Step = 30.9728%
Source Step = 31.1975%
Source Step = 31.4222%
Source Step = 31.6469%
Source Step = 31.8716%
vernier = 0.0111237
Source Step = 32.175%
Source Step = 32.5121%
Source Step = 32.8492%
Source Step = 33.1862%
Source Step = 33.5233%
vernier = 0.0166855
Source Step = 33.9615%
Source Step = 34.4672%
Source Step = 34.9728%
Source Step = 35.4784%
Source Step = 35.984%
vernier = 0.0250282
Source Step = 36.616%
Source Step = 37.3745%
Source Step = 38.1329%
Source Step = 38.8913%
Source Step = 39.6498%
vernier = 0.0375423
Source Step = 40.5599%
Source Step = 41.6975%
Source Step = 42.8352%
Source Step = 43.9728%
Source Step = 45.1105%
vernier = 0.0563135
Source Step = 46.4188%
Source Step = 48.1252%
Source Step = 49.8317%
Source Step = 51.5382%
Source Step = 53.2446%
vernier = 0.0844703
Source Step = 55.1218%
Source Step = 57.6815%
Source Step = 60.2412%
Source Step = 62.8009%
Source Step = 65.3606%
vernier = 0.126705
Source Step = 68.0483%
Source Step = 71.8878%
Source Step = 75.7274%
Source Step = 79.5669%
Source Step = 83.4065%
Source Step = 87.2461%
vernier = 0.190058
Source Step = 93.0054%
Source Step = 95.9031%
Source Step = 95.9931%
Source Step = 96.083%
Source Step = 96.173%
Source Step = 96.263%
Source Step = 96.353%
Source Step = 96.443%
Source Step = 96.533%
Source Step = 96.623%
Source Step = 96.713%
Source Step = 96.803%
Source Step = 96.893%
Source Step = 96.9829%
Source Step = 97.0729%
Starting source stepping with srcstepmethod=1
Source Step = 3.0303%
vernier = 0.25
Source Step = 2.93561%
Source stepping failed

Pseudo Transient succeeded in finding the operating point at 2.27673 s.
Heightened Def Con from 0.5847 to 0.5847
Heightened Def Con from 0.58511 to 0.58511
Heightened Def Con from 1.5815 to 1.5815
Heightened Def Con from 1.58202 to 1.58202
Heightened Def Con from 1.58209 to 1.58209
Heightened Def Con from 2.5935 to 2.5935
Heightened Def Con from 2.59389 to 2.59389
Heightened Def Con from 2.59396 to 2.59396
Heightened Def Con from 2.59399 to 2.59399
Heightened Def Con from 3.6115 to 3.6115
Heightened Def Con from 4.6323 to 4.6323
Heightened Def Con from 5.5985 to 5.5985
Heightened Def Con from 5.59876 to 5.59876
Heightened Def Con from 6.6015 to 6.6015
Heightened Def Con from 6.60203 to 6.60203
Heightened Def Con from 7.5865 to 7.5865
Heightened Def Con from 7.58692 to 7.58692
Heightened Def Con from 7.58708 to 7.58708
Heightened Def Con from 8.29575 to 8.29575
Heightened Def Con from 8.6087 to 8.6087
Heightened Def Con from 9.6225 to 9.6225
Heightened Def Con from 9.62276 to 9.62276
Heightened Def Con from 9.62293 to 9.62293
Heightened Def Con from 10.6135 to 10.6135
Heightened Def Con from 10.6139 to 10.6139
Heightened Def Con from 10.6141 to 10.6141
Heightened Def Con from 11.6105 to 11.6105
Heightened Def Con from 11.611 to 11.611
Heightened Def Con from 12.5895 to 12.5895
Heightened Def Con from 12.59 to 12.59
Heightened Def Con from 12.5903 to 12.5903
Heightened Def Con from 12.5904 to 12.5904
Heightened Def Con from 13.6075 to 13.6075
Heightened Def Con from 14.5803 to 14.5803
Heightened Def Con from 15.5935 to 15.5935
Heightened Def Con from 15.5935 to 15.5935
Heightened Def Con from 15.5945 to 15.5945
Heightened Def Con from 16.2919 +++++++++++++++++++++++++++++++to 16.2919
Heightened Def Con from 16.2919 to 16.2919
Heightened Def Con from 16.5905 to 16.5905
Heightened Def Con from 16.5908 to 16.5908
Heightened Def Con from 17.6127 to 17.6127
Heightened Def Con from 17.6127 to 17.6127
Heightened Def Con from 18.6127 to 18.6127
Heightened Def Con from 18.6128 to 18.6128
Heightened Def Con from 19.5865 to 19.5865
Heightened Def Con from 19.5868 to 19.5868
Heightened Def Con from 19.5869 to 19.5869
Heightened Def Con from 19.587 to 19.587
Heightened Def Con from 20.6255 to 20.6255
Heightened Def Con from 21.6087 to 21.6087
Heightened Def Con from 21.6092 to 21.6092
Heightened Def Con from 22.5967 to 22.5967
Heightened Def Con from 22.5972 to 22.5972
Heightened Def Con from 24.6295 to 24.6295
Heightened Def Con from 24.6298 to 24.6298
Heightened Def Con from 25.6065 to 25.6065
Heightened Def Con from 25.607 to 25.607
Heightened Def Con from 26.6105 to 26.6105
Heightened Def Con from 26.6108 to 26.6108
Heightened Def Con from 26.611 to 26.611
Heightened Def Con from 27.5829 to 27.5829
Heightened Def Con from 28.6127 to 28.6127
Heightened Def Con from 28.6128 to 28.6128
Heightened Def Con from 29.6041 to 29.6041

Date: Tue Sep 22 08:01:18 2020
Total elapsed time: 42.664 seconds.

tnom = 27
temp = 27
method = modified trap
totiter = 305367
traniter = 206331
tranpoints = 64902
accept = 61146
rejected = 5538
matrix size = 293
fillins = 3445
solver = Normal
Thread vector: 18.3/13.5[6] 5.0/3.2[6] 14.8/4.8[6] 1.3/2.0[1]  2592/500
Matrix Compiler1: 888.74 KB object code size  117.6/45.0/[30.8]
Matrix Compiler2: 83.54 KB object code size  9.4/6.8/[2.8]

