Circuit: * C:\work\E344\E344\Ass2\LTSpice\Deyzel_21750793_A2.asc

Early termination of direct N-R iteration.
Direct Newton iteration failed to find .op point.  (Use ".option noopiter" to skip.)
Starting Gmin stepping
Gmin = 10
vernier = 0.5
vernier = 0.25
vernier = 0.125
Gmin = 5.49741
vernier = 0.0625
vernier = 0.03125
vernier = 0.015625
vernier = 0.0078125
Gmin = 5.51716
vernier = 0.00390625
vernier = 0.00195313
vernier = 0.000976563
vernier = 0.000488281
Gmin = 5.50104
Gmin = 0
Gmin stepping failed

Starting source stepping with srcstepmethod=0
Source Step = 3.0303%
vernier = 0.25
Source Step = 7.57576%
Source Step = 15.1515%
Source Step = 22.7273%
Source Step = 30.303%
vernier = 0.0625
Source Step = 29.6106%
Source Step = 29.6402%
Source Step = 29.6697%
Source Step = 29.6993%
Source Step = 29.7289%
Source Step = 29.7585%
vernier = 0.00146484
Source Step = 29.7985%
Source Step = 29.8429%
Source Step = 29.8873%
Source Step = 29.9316%
Source Step = 29.976%
vernier = 0.00219727
Source Step = 30.0337%
Source Step = 30.1003%
Source Step = 30.1669%
Source Step = 30.2335%
Source Step = 30.3001%
vernier = 0.0032959
Source Step = 30.3833%
Source Step = 30.4832%
Source Step = 30.5831%
Source Step = 30.6829%
Source Step = 30.7828%
vernier = 0.00494385
Source Step = 30.9027%
Source Step = 31.0525%
Source Step = 31.2023%
Source Step = 31.3521%
Source Step = 31.5019%
vernier = 0.00741577
Source Step = 31.6742%
Source Step = 31.8989%
Source Step = 32.1236%
Source Step = 32.3484%
Source Step = 32.5731%
vernier = 0.0111237
Source Step = 32.8203%
Source Step = 33.1573%
Source Step = 33.4944%
Source Step = 33.8315%
Source Step = 34.1686%
vernier = 0.0166855
Source Step = 34.5225%
Source Step = 35.0281%
Source Step = 35.5338%
Source Step = 36.0394%
Source Step = 36.545%
Source Step = 37.0506%
vernier = 0.0250282
Source Step = 37.8091%
Source Step = 38.5675%
Source Step = 39.3259%
Source Step = 40.0844%
Source Step = 40.8428%
vernier = 0.0375423
Source Step = 41.9425%
Source Step = 43.0802%
Source Step = 44.2178%
Source Step = 45.3555%
Source Step = 46.4931%
vernier = 0.0563135
Source Step = 48.0858%
Source Step = 49.7923%
Source Step = 51.4987%
Source Step = 53.2052%
Source Step = 54.9117%
vernier = 0.0844703
Source Step = 57.2154%
Source Step = 59.7751%
Source Step = 62.3348%
Source Step = 64.8945%
Source Step = 67.4542%
vernier = 0.126705
Source Step = 70.7819%
Source Step = 74.6214%
Source Step = 78.461%
Source Step = 82.3005%
Source Step = 86.1401%
vernier = 0.190058
Source Step = 90.9395%
vernier = 0.0475145
Source Step = 90.5436%
Starting source stepping with srcstepmethod=1
Source Step = 3.0303%
Source Step = 12.136%
Source stepping failed

Pseudo transient terminated at 100.328 s, solution accepted ready or not!
Heightened Def Con from 0.4641 to 0.4641
Heightened Def Con from 1.5345 to 1.5345
Heightened Def Con from 1.53502 to 1.53502
Heightened Def Con from 1.53529 to 1.53529
Heightened Def Con from 2.5203 to 2.5203
Heightened Def Con from 2.52056 to 2.52056
Heightened Def Con from 2.52059 to 2.52059
Heightened Def Con from 3.5295 to 3.5295
Heightened Def Con from 3.53002 to 3.53002
Heightened Def Con from 3.53011 to 3.53011
Heightened Def Con from 4.54087 to 4.54087
Heightened Def Con from 5.5287 to 5.5287
Heightened Def Con from 5.52922 to 5.52922
Heightened Def Con from 5.52935 to 5.52935
Heightened Def Con from 7.5283 to 7.5283
Heightened Def Con from 7.52844 to 7.52844
Heightened Def Con from 10.5258 to 10.5258
Heightened Def Con from 11.5305 to 11.5305
Heightened Def Con from 11.531 to 11.531
Heightened Def Con from 11.5313 to 11.5313
Heightened Def Con from 12.5194 to 12.5194
Heightened Def Con from 12.5196 to 12.5196
Heightened Def Con from 12.5198 to 12.5198
Heightened Def Con from 13.5601 to 13.5601
Heightened Def Con from 14.5295 to 14.5295
Heightened Def Con from 18.54 to 18.54
Heightened Def Con from 19.5138 to 19.5138
Heightened Def Con from 21.5288 to 21.5288
Heightened Def Con from 22.5247 to 22.5247
Heightened Def Con from 22.5252 to 22.5252
Heightened Def Con from 22.5253 to 22.5253
Heightened Def Con from 23.5298 to 23.5298
Heightened Def Con from 25.5538 to 25.5538
Heightened Def Con from 26.529 to 26.529
Heightened Def Con from 26.5291 to 26.5291
Heightened Def Con from 28.5323 to 28.5323
Heightened Def Con from 29.5506 to 29.5506
Heightened Def Con from 29.5507 to 29.5507

Date: Fri Sep 25 17:44:43 2020
Total elapsed time: 13.490 seconds.

tnom = 27
temp = 27
method = modified trap
totiter = 208100
traniter = 187898
tranpoints = 62681
accept = 59655
rejected = 3308
matrix size = 269
fillins = 2013
solver = Normal
Thread vector: 15.1/11.3[6] 5.2/2.9[6] 10.4/4.0[6] 1.0/1.5[1]  2592/500
Matrix Compiler1: 355.10 KB object code size  45.0/17.4/[13.1]
Matrix Compiler2: 57.55 KB object code size  5.7/4.9/[1.9]

