Circuit: * C:\work\E344\E344\Ass2\LTSpice\Draft2.asc

Error on line 2 : v1 5v 0 v
	 Unknown parameter "v"
Error on line 3 : v2 0 -5v v
	 Unknown parameter "v"
V2: Missing value, assumed 0V @ DC
V1: Missing value, assumed 0V @ DC
Early termination of direct N-R iteration.
Direct Newton iteration failed to find .op point.  (Use ".option noopiter" to skip.)
Starting Gmin stepping
Gmin = 10
vernier = 0.5
vernier = 0.25
vernier = 0.125
Gmin = 6.68666
vernier = 0.0625
vernier = 0.03125
vernier = 0.015625
vernier = 0.0078125
Gmin = 6.72377
vernier = 0.00390625
vernier = 0.00195313
vernier = 0.000976563
vernier = 0.000488281
Gmin = 6.72131
Gmin = 0
Gmin stepping succeeded in finding the operating point.


Date: Wed Sep 23 07:59:16 2020
Total elapsed time: 0.073 seconds.

tnom = 27
temp = 27
method = trap
totiter = 1354
traniter = 0
tranpoints = 0
accept = 0
rejected = 0
matrix size = 31
fillins = 75
solver = Normal
Matrix Compiler1:     328 opcodes
Matrix Compiler2: 3.73 KB object code size  0.2/0.3/[0.3]

