Circuit: * C:\work\E344\E344\Ass2\LTSpice\Draft3.asc

Direct Newton iteration for .op point succeeded.

Date: Thu Sep 24 13:28:41 2020
Total elapsed time: 0.062 seconds.

tnom = 27
temp = 27
method = trap
totiter = 20
traniter = 0
tranpoints = 0
accept = 0
rejected = 0
matrix size = 27
fillins = 48
solver = Normal
Matrix Compiler1:     207 opcodes
Matrix Compiler2: 2.97 KB object code size
