Circuit: * C:\work\E344\E344\Ass2\LTSpice\Draft2.asc

WARNING: Less than two connections to node VOUTBEATPULSES.  This node is used by A1.
Direct Newton iteration failed to find .op point.  (Use ".option noopiter" to skip.)
Starting Gmin stepping
Gmin = 10
Gmin = 1.07374
Gmin = 0.115292
Gmin = 0.0123794
Gmin = 0.00132923
Gmin = 0.000142725
Gmin = 1.5325e-005
Gmin = 1.6455e-006
Gmin = 1.76685e-007
Gmin = 1.89714e-008
vernier = 0.5
Gmin = 3.18287e-009
vernier = 0.25
vernier = 0.125
vernier = 0.0625
vernier = 0.03125
vernier = 0.015625
vernier = 0.0078125
vernier = 0.00390625
Gmin = 3.17356e-009
vernier = 0.00520833
vernier = 0.00694444
Gmin = 3.13186e-009
vernier = 0.00925925
Gmin = 3.06735e-009
vernier = 0.0123457
vernier = 0.0164609
Gmin = 2.9621e-009
vernier = 0.0219478
vernier = 0.0292638
Gmin = 2.80183e-009
vernier = 0.0390184
vernier = 0.0195092
Gmin = 2.61768e-009
vernier = 0.0260122
Gmin = 2.47329e-009
vernier = 0.034683
vernier = 0.046244
Gmin = 2.25417e-009
vernier = 0.0616586
vernier = 0.0822114
Gmin = 1.94677e-009
vernier = 0.109615
Gmin = 1.53614e-009
vernier = 0.146154
vernier = 0.194871
Gmin = 1.04521e-009
vernier = 0.259828
vernier = 0.346438
Gmin = 5.71689e-010
vernier = 0.461917
Gmin = 2.18517e-010
vernier = 0.615889
vernier = 0.821185
Gmin = 4.73773e-011
vernier = 1
Gmin = 5.67438e-012
Gmin = 6.09282e-013
Gmin = 0
Gmin stepping succeeded in finding the operating point.


Date: Sat Aug 29 16:56:40 2020
Total elapsed time: 0.085 seconds.

tnom = 27
temp = 27
method = modified trap
totiter = 3820
traniter = 2092
tranpoints = 1047
accept = 1047
rejected = 0
matrix size = 17
fillins = 6
solver = Normal
Matrix Compiler1: 1.03 KB object code size  0.2/0.1/[0.1]
Matrix Compiler2: 1.44 KB object code size  0.1/0.2/[0.1]

