Circuit: * C:\work\E344\E344\Ass2\LTSpice\E344_Ass2_template.asc

Early termination of direct N-R iteration.
Direct Newton iteration failed to find .op point.  (Use ".option noopiter" to skip.)
Starting Gmin stepping
Gmin = 10
vernier = 0.5
vernier = 0.25
vernier = 0.125
Gmin = 5.5165
vernier = 0.0625
vernier = 0.03125
vernier = 0.015625
vernier = 0.0078125
Gmin = 5.49501
vernier = 0.00390625
vernier = 0.00195313
vernier = 0.000976563
vernier = 0.000488281
Gmin = 5.50104
Gmin = 0
Gmin stepping failed

Starting source stepping with srcstepmethod=0
Source Step = 3.0303%
vernier = 0.25
Source Step = 1.70455%
Source Step = 3.59848%
Source Step = 5.49242%
Source Step = 7.38636%
Source Step = 9.2803%
Source Step = 9.84848%
Source Step = 10.322%
Source Step = 10.7955%
Source Step = 11.1861%
vernier = 0.000976563
Source Step = 11.2038%
Source Step = 11.2334%
Source Step = 11.263%
Source Step = 11.2926%
Source Step = 11.3222%
vernier = 0.00146484
Source Step = 11.3592%
Source Step = 11.4036%
Source Step = 11.448%
Source Step = 11.4924%
Source Step = 11.5368%
vernier = 0.00219727
Source Step = 11.59%
Source Step = 11.6566%
Source Step = 11.7232%
Source Step = 11.7898%
Source Step = 11.8564%
vernier = 0.0032959
Source Step = 11.9329%
Source Step = 12.0328%
Source Step = 12.1327%
Source Step = 12.2326%
Source Step = 12.3324%
vernier = 0.00494385
Source Step = 12.4423%
Source Step = 12.5921%
Source Step = 12.7419%
Source Step = 12.8917%
Source Step = 13.0415%
vernier = 0.00741577
Source Step = 13.1989%
Source Step = 13.4236%
Source Step = 13.6483%
Source Step = 13.873%
Source Step = 14.0977%
Source Step = 14.3225%
vernier = 0.0111237
Source Step = 14.6595%
Source Step = 14.9966%
Source Step = 15.3337%
Source Step = 15.6708%
Source Step = 16.0079%
vernier = 0.0166855
Source Step = 16.4966%
Source Step = 17.0022%
Source Step = 17.5079%
Source Step = 18.0135%
Source Step = 18.5191%
vernier = 0.0250282
Source Step = 19.227%
Source Step = 19.9854%
Source Step = 20.7438%
Source Step = 21.5023%
Source Step = 22.2607%
vernier = 0.0375423
Source Step = 23.2846%
Source Step = 24.4222%
Source Step = 25.5599%
Source Step = 26.6975%
Source Step = 27.8352%
vernier = 0.0563135
Source Step = 29.3141%
Source Step = 31.0206%
Source Step = 32.7271%
Source Step = 34.4335%
Source Step = 36.14%
vernier = 0.0844703
Source Step = 38.2731%
Source Step = 40.8328%
Source Step = 43.3925%
Source Step = 45.9522%
Source Step = 48.5119%
vernier = 0.126705
Source Step = 51.5835%
Source Step = 55.4231%
Source Step = 59.2627%
Source Step = 63.1022%
Source Step = 66.9418%
vernier = 0.190058
Source Step = 71.3573%
Source Step = 77.1166%
Source Step = 82.8759%
Source Step = 88.6353%
Source Step = 90.3991%
Source Step = 90.4891%
Source Step = 90.5791%
Source Step = 90.669%
Source Step = 90.759%
Source Step = 90.849%
Starting source stepping with srcstepmethod=1
Source Step = 3.0303%
Source stepping failed

Pseudo Transient failed in finding the operating point at 240.956 ms.
Trouble finding operating point....skipping operating point for Transient analysis.
Changing Tseed to 1e-007
Changing Tseed to 1e-009
Changing Tseed to 1e-006
Changing Tseed to 1e-010
Changing Tseed to 1e-005
Changing Tseed to 1e-011
Changing Tseed to 0.0001
Changing Tseed to 1e-012
Changing Tseed to 0.001
Changing Tseed to 1e-013
Changing Tseed to 0.01
Changing Tseed to 1e-014
Heightened Def Con from 0 Changing Tseed to 1e-008
Changing Tseed to 1e-010
Changing Tseed to 1e-007
Changing Tseed to 1e-011
Changing Tseed to 1e-006
Changing Tseed to 1e-012
Changing Tseed to 1e-005
Changing Tseed to 1e-013
Changing Tseed to 0.0001
Changing Tseed to 1e-014
Changing Tseed to 0.001
Changing Tseed to 1e-015
+Changing Tseed to 1e-008
Changing Tseed to 1e-010
Changing Tseed to 1e-007
Changing Tseed to 1e-011
Changing Tseed to 1e-006
Changing Tseed to 1e-012
Changing Tseed to 1e-005
Changing Tseed to 1e-013
Changing Tseed to 0.0001
Changing Tseed to 1e-014
Changing Tseed to 0.001
Changing Tseed to 1e-015
+Changing Tseed to 1e-008
Changing Tseed to 1e-010
Changing Tseed to 1e-007
Changing Tseed to 1e-011
Changing Tseed to 1e-006
Changing Tseed to 1e-012
Changing Tseed to 1e-005
Changing Tseed to 1e-013
Changing Tseed to 0.0001
Changing Tseed to 1e-014
Changing Tseed to 0.001
Changing Tseed to 1e-015
+Changing Tseed to 1e-008
Changing Tseed to 1e-010
Changing Tseed to 1e-007
Changing Tseed to 1e-011
Changing Tseed to 1e-006
Changing Tseed to 1e-012
Changing Tseed to 1e-005
Changing Tseed to 1e-013
Changing Tseed to 0.0001
Changing Tseed to 1e-014
Changing Tseed to 0.001
Changing Tseed to 1e-015
+Changing Tseed to 1e-008
Changing Tseed to 1e-010
Changing Tseed to 1e-007
Changing Tseed to 1e-011
Changing Tseed to 1e-006
Changing Tseed to 1e-012
Changing Tseed to 1e-005
Changing Tseed to 1e-013
Changing Tseed to 0.0001
Changing Tseed to 1e-014
Changing Tseed to 0.001
Changing Tseed to 1e-015
+Changing Tseed to 1e-008
Changing Tseed to 1e-010
Changing Tseed to 1e-007
Changing Tseed to 1e-011
Changing Tseed to 1e-006
Changing Tseed to 1e-012
Changing Tseed to 1e-005
Changing Tseed to 1e-013
Changing Tseed to 0.0001
Changing Tseed to 1e-014
Changing Tseed to 0.001
Changing Tseed to 1e-015
+Changing Tseed to 1e-008
Changing Tseed to 1e-010
Changing Tseed to 1e-007
Changing Tseed to 1e-011
Changing Tseed to 1e-006
Changing Tseed to 1e-012
Changing Tseed to 1e-005
Changing Tseed to 1e-013
Changing Tseed to 0.0001
Changing Tseed to 1e-014
Changing Tseed to 0.001
Changing Tseed to 1e-015
+Changing Tseed to 1e-008
Changing Tseed to 1e-010
Changing Tseed to 1e-007
Changing Tseed to 1e-011
Changing Tseed to 1e-006
Changing Tseed to 1e-012
Changing Tseed to 1e-005
Changing Tseed to 1e-013
Changing Tseed to 0.0001
Changing Tseed to 1e-014
Changing Tseed to 0.001
Changing Tseed to 1e-015
+Changing Tseed to 1e-008
Changing Tseed to 1e-010
Changing Tseed to 1e-007
Changing Tseed to 1e-011
Changing Tseed to 1e-006
Changing Tseed to 1e-012
Changing Tseed to 1e-005
Changing Tseed to 1e-013
Changing Tseed to 0.0001
Changing Tseed to 1e-014
Changing Tseed to 0.001
Changing Tseed to 1e-015
+Changing Tseed to 1e-008
Changing Tseed to 1e-010
Changing Tseed to 1e-007
Changing Tseed to 1e-011
Changing Tseed to 1e-006
Changing Tseed to 1e-012
Changing Tseed to 1e-005
Changing Tseed to 1e-013
Changing Tseed to 0.0001
Changing Tseed to 1e-014
Changing Tseed to 0.001
Changing Tseed to 1e-015
+Changing Tseed to 1e-008
Changing Tseed to 1e-010
Changing Tseed to 1e-007
Changing Tseed to 1e-011
Changing Tseed to 1e-006
Changing Tseed to 1e-012
Changing Tseed to 1e-005
Changing Tseed to 1e-013
Changing Tseed to 0.0001
Changing Tseed to 1e-014
Changing Tseed to 0.001
Changing Tseed to 1e-015
+Changing Tseed to 1e-008
Changing Tseed to 1e-010
Changing Tseed to 1e-007
Changing Tseed to 1e-011
Changing Tseed to 1e-006
Changing Tseed to 1e-012
Changing Tseed to 1e-005
Changing Tseed to 1e-013
Changing Tseed to 0.0001
Changing Tseed to 1e-014
Changing Tseed to 0.001
Changing Tseed to 1e-015
+Changing Tseed to 1e-008
Changing Tseed to 1e-010
Changing Tseed to 1e-007
Changing Tseed to 1e-011
Changing Tseed to 1e-006
Changing Tseed to 1e-012
Changing Tseed to 1e-005
Changing Tseed to 1e-013
Changing Tseed to 0.0001
Changing Tseed to 1e-014
Changing Tseed to 0.001
Changing Tseed to 1e-015
+Changing Tseed to 1e-008
Changing Tseed to 1e-010
Changing Tseed to 1e-007
Changing Tseed to 1e-011
Changing Tseed to 1e-006
Changing Tseed to 1e-012
Changing Tseed to 1e-005
Changing Tseed to 1e-013
Changing Tseed to 0.0001
Changing Tseed to 1e-014
Changing Tseed to 0.001
Changing Tseed to 1e-015
+Changing Tseed to 1e-008
Changing Tseed to 1e-010
Changing Tseed to 1e-007
Changing Tseed to 1e-011
Changing Tseed to 1e-006
Changing Tseed to 1e-012
Changing Tseed to 1e-005
Changing Tseed to 1e-013
Changing Tseed to 0.0001
Changing Tseed to 1e-014
Changing Tseed to 0.001
Changing Tseed to 1e-015
+Changing Tseed to 1e-008
Changing Tseed to 1e-010
Changing Tseed to 1e-007
Changing Tseed to 1e-011
Changing Tseed to 1e-006
Changing Tseed to 1e-012
Changing Tseed to 1e-005
Changing Tseed to 1e-013
Changing Tseed to 0.0001
Changing Tseed to 1e-014
Changing Tseed to 0.001
Changing Tseed to 1e-015
+Changing Tseed to 1e-008
Changing Tseed to 1e-010
Changing Tseed to 1e-007
Changing Tseed to 1e-011
Changing Tseed to 1e-006
Changing Tseed to 1e-012
Changing Tseed to 1e-005
Changing Tseed to 1e-013
Changing Tseed to 0.0001
Changing Tseed to 1e-014
Changing Tseed to 0.001
Changing Tseed to 1e-015
+Changing Tseed to 1e-008
Changing Tseed to 1e-010
Changing Tseed to 1e-007
Changing Tseed to 1e-011
Changing Tseed to 1e-006
Changing Tseed to 1e-012
Changing Tseed to 1e-005
Changing Tseed to 1e-013
Changing Tseed to 0.0001
Changing Tseed to 1e-014
Changing Tseed to 0.001
Changing Tseed to 1e-015
+Changing Tseed to 1e-008
Changing Tseed to 1e-010
Changing Tseed to 1e-007
Changing Tseed to 1e-011
Changing Tseed to 1e-006
Changing Tseed to 1e-012
Changing Tseed to 1e-005
Changing Tseed to 1e-013
Changing Tseed to 0.0001
Changing Tseed to 1e-014
Changing Tseed to 0.001
Changing Tseed to 1e-015
+Changing Tseed to 1e-008
Changing Tseed to 1e-010
Changing Tseed to 1e-007
Changing Tseed to 1e-011
Changing Tseed to 1e-006
Changing Tseed to 1e-012
Changing Tseed to 1e-005
Changing Tseed to 1e-013
Changing Tseed to 0.0001
Changing Tseed to 1e-014
Changing Tseed to 0.001
Changing Tseed to 1e-015
+Changing Tseed to 1e-008
Changing Tseed to 1e-010
Changing Tseed to 1e-007
Changing Tseed to 1e-011
Changing Tseed to 1e-006
Changing Tseed to 1e-012
Changing Tseed to 1e-005
Changing Tseed to 1e-013
Changing Tseed to 0.0001
Changing Tseed to 1e-014
Changing Tseed to 0.001
Changing Tseed to 1e-015
+Changing Tseed to 1e-008
Changing Tseed to 1e-010
Changing Tseed to 1e-007
Changing Tseed to 1e-011
Changing Tseed to 1e-006
Changing Tseed to 1e-012
Changing Tseed to 1e-005
Changing Tseed to 1e-013
Changing Tseed to 0.0001
Changing Tseed to 1e-014
Changing Tseed to 0.001
Changing Tseed to 1e-015
+Changing Tseed to 1e-008
Changing Tseed to 1e-010
Changing Tseed to 1e-007
Changing Tseed to 1e-011
Changing Tseed to 1e-006
Changing Tseed to 1e-012
Changing Tseed to 1e-005
Changing Tseed to 1e-013
Changing Tseed to 0.0001
Changing Tseed to 1e-014
Changing Tseed to 0.001
Changing Tseed to 1e-015
+Changing Tseed to 1e-008
Changing Tseed to 1e-010
Changing Tseed to 1e-007
Changing Tseed to 1e-011
Changing Tseed to 1e-006
Changing Tseed to 1e-012
Changing Tseed to 1e-005
Changing Tseed to 1e-013
Changing Tseed to 0.0001
Changing Tseed to 1e-014
Changing Tseed to 0.001
Changing Tseed to 1e-015
+Changing Tseed to 1e-008
Changing Tseed to 1e-010
Changing Tseed to 1e-007
Changing Tseed to 1e-011
Changing Tseed to 1e-006
Changing Tseed to 1e-012
Changing Tseed to 1e-005
Changing Tseed to 1e-013
Changing Tseed to 0.0001
Changing Tseed to 1e-014
Changing Tseed to 0.001
Changing Tseed to 1e-015
+Changing Tseed to 1e-008
Changing Tseed to 1e-010
Changing Tseed to 1e-007
Changing Tseed to 1e-011
Changing Tseed to 1e-006
Changing Tseed to 1e-012
Changing Tseed to 1e-005
Changing Tseed to 1e-013
Changing Tseed to 0.0001
Changing Tseed to 1e-014
Changing Tseed to 0.001
Changing Tseed to 1e-015
+Changing Tseed to 1e-008
Changing Tseed to 1e-010
Changing Tseed to 1e-007
Changing Tseed to 1e-011
Changing Tseed to 1e-006
Changing Tseed to 1e-012
Changing Tseed to 1e-005
Changing Tseed to 1e-013
Changing Tseed to 0.0001
Changing Tseed to 1e-014
Changing Tseed to 0.001
Changing Tseed to 1e-015
+Changing Tseed to 1e-008
Changing Tseed to 1e-010
Changing Tseed to 1e-007
Changing Tseed to 1e-011
Changing Tseed to 1e-006
Changing Tseed to 1e-012
Changing Tseed to 1e-005
Changing Tseed to 1e-013
Changing Tseed to 0.0001
Changing Tseed to 1e-014
Changing Tseed to 0.001
Changing Tseed to 1e-015
+Changing Tseed to 1e-008
Changing Tseed to 1e-010
Changing Tseed to 1e-007
Changing Tseed to 1e-011
Changing Tseed to 1e-006
Changing Tseed to 1e-012
Changing Tseed to 1e-005
Changing Tseed to 1e-013
Changing Tseed to 0.0001
Changing Tseed to 1e-014
Changing Tseed to 0.001
Changing Tseed to 1e-015
+Changing Tseed to 1e-008
Changing Tseed to 1e-010
Changing Tseed to 1e-007
Changing Tseed to 1e-011
Changing Tseed to 1e-006
Changing Tseed to 1e-012
Changing Tseed to 1e-005
Changing Tseed to 1e-013
Changing Tseed to 0.0001
Changing Tseed to 1e-014
Changing Tseed to 0.001
Changing Tseed to 1e-015
+Changing Tseed to 1e-008
Changing Tseed to 1e-010
Changing Tseed to 1e-007
Changing Tseed to 1e-011
Changing Tseed to 1e-006
Changing Tseed to 1e-012
Changing Tseed to 1e-005
Changing Tseed to 1e-013
Changing Tseed to 0.0001
Changing Tseed to 1e-014
Changing Tseed to 0.001
Changing Tseed to 1e-015
+Changing Tseed to 1e-008
Changing Tseed to 1e-010
Changing Tseed to 1e-007
Changing Tseed to 1e-011
Changing Tseed to 1e-006
Changing Tseed to 1e-012
Changing Tseed to 1e-005
Changing Tseed to 1e-013
Changing Tseed to 0.0001
Changing Tseed to 1e-014
Changing Tseed to 0.001
Changing Tseed to 1e-015
+Changing Tseed to 1e-008
Changing Tseed to 1e-010
Changing Tseed to 1e-007
Changing Tseed to 1e-011
Changing Tseed to 1e-006
Changing Tseed to 1e-012
Changing Tseed to 1e-005
Changing Tseed to 1e-013
Changing Tseed to 0.0001
Changing Tseed to 1e-014
Changing Tseed to 0.001
Changing Tseed to 1e-015
+Changing Tseed to 1e-008
Changing Tseed to 1e-010
Changing Tseed to 1e-007
Changing Tseed to 1e-011
Changing Tseed to 1e-006
Changing Tseed to 1e-012
Changing Tseed to 1e-005
Changing Tseed to 1e-013
Changing Tseed to 0.0001
Changing Tseed to 1e-014
Changing Tseed to 0.001
Changing Tseed to 1e-015
+Changing Tseed to 1e-008
Changing Tseed to 1e-010
Changing Tseed to 1e-007
Changing Tseed to 1e-011
Changing Tseed to 1e-006
Changing Tseed to 1e-012
Changing Tseed to 1e-005
Changing Tseed to 1e-013
Changing Tseed to 0.0001
Changing Tseed to 1e-014
Changing Tseed to 0.001
Changing Tseed to 1e-015
+Changing Tseed to 1e-008
Changing Tseed to 1e-010
Changing Tseed to 1e-007
Changing Tseed to 1e-011
Changing Tseed to 1e-006
Changing Tseed to 1e-012
Changing Tseed to 1e-005
Changing Tseed to 1e-013
Changing Tseed to 0.0001
Changing Tseed to 1e-014
Changing Tseed to 0.001
Changing Tseed to 1e-015
+Changing Tseed to 1e-008
Changing Tseed to 1e-010
Changing Tseed to 1e-007
Changing Tseed to 1e-011
Changing Tseed to 1e-006
Changing Tseed to 1e-012
Changing Tseed to 1e-005
Changing Tseed to 1e-013
Changing Tseed to 0.0001
Changing Tseed to 1e-014
Changing Tseed to 0.001
Changing Tseed to 1e-015
+Changing Tseed to 1e-008
Changing Tseed to 1e-010
Changing Tseed to 1e-007
Changing Tseed to 1e-011
Changing Tseed to 1e-006
Changing Tseed to 1e-012
Changing Tseed to 1e-005
Changing Tseed to 1e-013
Changing Tseed to 0.0001
Changing Tseed to 1e-014
Changing Tseed to 0.001
Changing Tseed to 1e-015
+Changing Tseed to 1e-008
Changing Tseed to 1e-010
Changing Tseed to 1e-007
Changing Tseed to 1e-011
Changing Tseed to 1e-006
Changing Tseed to 1e-012
Changing Tseed to 1e-005
Changing Tseed to 1e-013
Changing Tseed to 0.0001
Changing Tseed to 1e-014
Changing Tseed to 0.001
Changing Tseed to 1e-015
+Changing Tseed to 1e-008
Changing Tseed to 1e-010
Changing Tseed to 1e-007
Changing Tseed to 1e-011
Changing Tseed to 1e-006
Changing Tseed to 1e-012
Changing Tseed to 1e-005
Changing Tseed to 1e-013
Changing Tseed to 0.0001
Changing Tseed to 1e-014
Changing Tseed to 0.001
Changing Tseed to 1e-015
+Changing Tseed to 1e-008
Changing Tseed to 1e-010
Changing Tseed to 1e-007
Changing Tseed to 1e-011
Changing Tseed to 1e-006
Changing Tseed to 1e-012
Changing Tseed to 1e-005
Changing Tseed to 1e-013
Changing Tseed to 0.0001
Changing Tseed to 1e-014
Changing Tseed to 0.001
Changing Tseed to 1e-015
+Changing Tseed to 1e-008
Changing Tseed to 1e-010
Changing Tseed to 1e-007
Changing Tseed to 1e-011
Changing Tseed to 1e-006
Changing Tseed to 1e-012
Changing Tseed to 1e-005
Changing Tseed to 1e-013
Changing Tseed to 0.0001
Changing Tseed to 1e-014
Changing Tseed to 0.001
Changing Tseed to 1e-015
+Changing Tseed to 1e-008
Changing Tseed to 1e-010
Changing Tseed to 1e-007
Changing Tseed to 1e-011
Changing Tseed to 1e-006
Changing Tseed to 1e-012
to 1.01562e-012
Heightened Def Con from 1.01562e-012 +++++++++++++++++++++++++++++++++++to 8.00102e-009
Heightened Def Con from 8.00102e-009 ++++++++++++++++++++++++++++++to 9.01664e-009
Heightened Def Con from 0.0055 to 0.0055
Heightened Def Con from 0.157884 to 0.157884
Heightened Def Con from 0.183749 to 0.183749
Heightened Def Con from 0.184832 to 0.184832
Heightened Def Con from 0.185018 to 0.185018
Heightened Def Con from 0.185242 to 0.185242
Heightened Def Con from 0.185354 to 0.185354
Heightened Def Con from 0.18554 to 0.18554
Heightened Def Con from 0.185577 to 0.185577
Heightened Def Con from 0.185614 to 0.185614
Heightened Def Con from 0.185651 to 0.185651
Heightened Def Con from 0.18567 to 0.18567
Heightened Def Con from 0.185715 to 0.185715
Heightened Def Con from 0.185785 to 0.185785
Heightened Def Con from 0.185802 to 0.185802
Heightened Def Con from 0.185816 to 0.185816
Heightened Def Con from 0.185818 to 0.185818
Heightened Def Con from 0.185833 to 0.185833
Heightened Def Con from 0.185834 +to 0.185834
Heightened Def Con from 0.185835 to 0.185835
Heightened Def Con from 0.185835 to 0.185835
Heightened Def Con from 0.18584 to 0.18584
Heightened Def Con from 0.185841 to 0.185841
Heightened Def Con from 0.185851 to 0.185851
Heightened Def Con from 0.185851 to 0.185851
Heightened Def Con from 0.185855 to 0.185855
Heightened Def Con from 0.185857 to 0.185857
Heightened Def Con from 0.185868 to 0.185868
Heightened Def Con from 0.185868 to 0.185868
Heightened Def Con from 0.185871 to 0.185871
Heightened Def Con from 0.185883 to 0.185883
Heightened Def Con from 0.185884 to 0.185884
Heightened Def Con from 0.185884 to 0.185884
Heightened Def Con from 0.185884 to 0.185884
Heightened Def Con from 0.185884 to 0.185884
Heightened Def Con from 0.185884 to 0.185884
Heightened Def Con from 0.185888 to 0.185888
Heightened Def Con from 0.185888 to 0.185888
Heightened Def Con from 0.18589 to 0.18589
Heightened Def Con from 0.185901 to 0.185901
Heightened Def Con from 0.185901 to 0.185901
Heightened Def Con from 0.185904 to 0.185904
Heightened Def Con from 0.185917 to 0.185917
Heightened Def Con from 0.185923 to 0.185923
Heightened Def Con from 0.185934 to 0.185934
Heightened Def Con from 0.185934 to 0.185934
Heightened Def Con from 0.185934 to 0.185934
Heightened Def Con from 0.185934 to 0.185934
Heightened Def Con from 0.185934 to 0.185934
Heightened Def Con from 0.18594 to 0.18594
Heightened Def Con from 0.18594 to 0.18594
Heightened Def Con from 0.18595 to 0.18595
Heightened Def Con from 0.18595 to 0.18595
Heightened Def Con from 0.185954 to 0.185954
Heightened Def Con from 0.185967 to 0.185967
Heightened Def Con from 0.185967 to 0.185967
Heightened Def Con from 0.185973 to 0.185973
Heightened Def Con from 0.185982 to 0.185982
Heightened Def Con from 0.185983 to 0.185983
Heightened Def Con from 0.185989 to 0.185989
Heightened Def Con from 0.186 to 0.186
Heightened Def Con from 0.186 to 0.186
Heightened Def Con from 0.186 to 0.186
Heightened Def Con from 0.186004 to 0.186004
Heightened Def Con from 0.186006 to 0.186006
Heightened Def Con from 0.186017 +to 0.186017
Heightened Def Con from 0.186017 to 0.186017
Heightened Def Con from 0.186033 to 0.186033
Heightened Def Con from 0.186033 to 0.186033
Heightened Def Con from 0.186039 to 0.186039
Heightened Def Con from 0.186048 to 0.186048
Heightened Def Con from 0.18605 to 0.18605
Heightened Def Con from 0.18605 to 0.18605
Heightened Def Con from 0.186053 to 0.186053
Heightened Def Con from 0.186055 to 0.186055
Heightened Def Con from 0.186065 to 0.186065
Heightened Def Con from 0.186066 to 0.186066
Heightened Def Con from 0.18607 to 0.18607
Heightened Def Con from 0.186072 to 0.186072
Heightened Def Con from 0.186081 to 0.186081
Heightened Def Con from 0.186083 to 0.186083
Heightened Def Con from 0.186083 to 0.186083
Heightened Def Con from 0.186083 to 0.186083
Heightened Def Con from 0.186083 to 0.186083
Heightened Def Con from 0.186086 to 0.186086
Heightened Def Con from 0.186086 to 0.186086
Heightened Def Con from 0.186099 to 0.186099
Heightened Def Con from 0.186099 to 0.186099
Heightened Def Con from 0.186099 to 0.186099
Heightened Def Con from 0.186103 to 0.186103
Heightened Def Con from 0.186103 to 0.186103
Heightened Def Con from 0.186105 to 0.186105
Heightened Def Con from 0.186116 to 0.186116
Heightened Def Con from 0.186119 to 0.186119
Heightened Def Con from 0.186121 to 0.186121
Heightened Def Con from 0.186132 to 0.186132
Heightened Def Con from 0.186132 to 0.186133
Heightened Def Con from 0.186136 to 0.186136
Heightened Def Con from 0.186138 to 0.186138
Heightened Def Con from 0.186149 to 0.186149
Heightened Def Con from 0.186149 to 0.186149
Heightened Def Con from 0.186153 to 0.186153
Heightened Def Con from 0.186153 to 0.186153
Heightened Def Con from 0.186164 to 0.186164
Heightened Def Con from 0.186166 to 0.186166
Heightened Def Con from 0.186166 to 0.186166
Heightened Def Con from 0.186169 to 0.186169
Heightened Def Con from 0.186169 to 0.186169
Heightened Def Con from 0.186182 +to 0.186182
Heightened Def Con from 0.186182 to 0.186182
Heightened Def Con from 0.186182 to 0.186182
Heightened Def Con from 0.186182 to 0.186182
Heightened Def Con from 0.186186 to 0.186186
Heightened Def Con from 0.186186 to 0.186186
Heightened Def Con from 0.186186 to 0.186186
Heightened Def Con from 0.186188 to 0.186188
Heightened Def Con from 0.186199 +to 0.186199
Heightened Def Con from 0.186199 to 0.186199
Heightened Def Con from 0.186204 to 0.186204
Heightened Def Con from 0.186214 to 0.186214
Heightened Def Con from 0.186215 to 0.186215
Heightened Def Con from 0.186215 to 0.186215
Heightened Def Con from 0.186215 to 0.186215
Heightened Def Con from 0.186219 to 0.186219
Heightened Def Con from 0.186219 to 0.186219
Heightened Def Con from 0.186219 to 0.186219
Heightened Def Con from 0.186221 to 0.186221
Heightened Def Con from 0.186232 to 0.186232
Heightened Def Con from 0.186232 to 0.186232
Heightened Def Con from 0.186232 to 0.186232
Heightened Def Con from 0.186232 to 0.186232
Heightened Def Con from 0.186235 to 0.186235
Heightened Def Con from 0.186237 to 0.186237
Heightened Def Con from 0.186248 to 0.186248
Heightened Def Con from 0.186248 to 0.186248
Heightened Def Con from 0.186252 to 0.186252
Heightened Def Con from 0.186252 to 0.186252
Heightened Def Con from 0.186265 to 0.186265
Heightened Def Con from 0.186265 to 0.186265
Heightened Def Con from 0.18627 to 0.18627
Heightened Def Con from 0.186281 to 0.186281
Heightened Def Con from 0.186281 to 0.186281
Heightened Def Con from 0.186281 to 0.186281
Heightened Def Con from 0.186285 to 0.186285
Heightened Def Con from 0.186298 to 0.186298
Heightened Def Con from 0.186298 to 0.186298
Heightened Def Con from 0.186302 to 0.186302
Heightened Def Con from 0.186302 to 0.186302
Heightened Def Con from 0.186315 to 0.186315
Heightened Def Con from 0.186315 to 0.186315
Heightened Def Con from 0.186315 to 0.186315
Heightened Def Con from 0.186318 to 0.186318
Heightened Def Con from 0.186318 to 0.186318
Heightened Def Con from 0.18632 to 0.18632
Heightened Def Con from 0.186331 to 0.186331
Heightened Def Con from 0.186331 to 0.186331
Heightened Def Con from 0.186331 to 0.186331
Heightened Def Con from 0.186335 to 0.186335
Heightened Def Con from 0.186348 to 0.186348
Heightened Def Con from 0.186348 to 0.186348
Heightened Def Con from 0.186351 to 0.186351
Heightened Def Con from 0.186353 to 0.186353
Heightened Def Con from 0.186364 to 0.186364
Heightened Def Con from 0.186364 to 0.186364
Heightened Def Con from 0.186364 to 0.186364
Heightened Def Con from 0.186368 to 0.186368
Heightened Def Con from 0.186368 to 0.186368
Heightened Def Con from 0.186381 to 0.186381
Heightened Def Con from 0.186381 to 0.186381
Heightened Def Con from 0.186381 to 0.186381
Heightened Def Con from 0.186381 to 0.186381
Heightened Def Con from 0.186384 to 0.186384
Heightened Def Con from 0.186397 to 0.186397
Heightened Def Con from 0.186401 to 0.186401
Heightened Def Con from 0.186403 to 0.186403
Heightened Def Con from 0.186414 to 0.186414
Heightened Def Con from 0.186414 to 0.186414
Heightened Def Con from 0.186414 to 0.186414
Heightened Def Con from 0.186417 to 0.186417
Heightened Def Con from 0.186417 to 0.186417
Heightened Def Con from 0.18642 to 0.18642
Heightened Def Con from 0.186429 to 0.186429
Heightened Def Con from 0.18643 to 0.18643
Heightened Def Con from 0.186434 to 0.186434
Heightened Def Con from 0.186436 to 0.186436
Heightened Def Con from 0.186447 to 0.186447
Heightened Def Con from 0.186453 to 0.186453
Heightened Def Con from 0.186464 to 0.186464
Heightened Def Con from 0.186464 to 0.186464
Heightened Def Con from 0.186464 to 0.186464
Heightened Def Con from 0.186464 to 0.186464
Heightened Def Con from 0.186467 to 0.186467
Heightened Def Con from 0.186469 to 0.186469
Heightened Def Con from 0.186479 to 0.186479
Heightened Def Con from 0.18648 to 0.18648
Heightened Def Con from 0.18648 to 0.18648
Heightened Def Con from 0.18648 to 0.18648
Heightened Def Con from 0.186484 to 0.186484
Heightened Def Con from 0.186497 to 0.186497
Heightened Def Con from 0.1865 to 0.1865
Heightened Def Con from 0.1865 to 0.1865
Heightened Def Con from 0.186512 to 0.186512
Heightened Def Con from 0.186513 to 0.186513
Heightened Def Con from 0.186517 to 0.186517
Heightened Def Con from 0.186517 to 0.186517
Heightened Def Con from 0.186519 to 0.186519
Heightened Def Con from 0.186528 to 0.186528
Heightened Def Con from 0.18653 to 0.18653
Heightened Def Con from 0.18653 to 0.18653
Heightened Def Con from 0.18653 to 0.18653
Heightened Def Con from 0.186535 to 0.186535
Heightened Def Con from 0.186546 to 0.186546
Heightened Def Con from 0.186546 to 0.186546
Heightened Def Con from 0.18655 to 0.18655
Heightened Def Con from 0.18655 to 0.18655
Heightened Def Con from 0.186563 to 0.186563
Heightened Def Con from 0.186563 to 0.186563
Heightened Def Con from 0.186566 to 0.186566
Heightened Def Con from 0.186568 to 0.186568
Heightened Def Con from 0.186579 to 0.186579
Heightened Def Con from 0.186579 to 0.186579
Heightened Def Con from 0.186579 to 0.186579
Heightened Def Con from 0.186579 to 0.186579
Heightened Def Con from 0.186583 to 0.186583
Heightened Def Con from 0.186585 to 0.186585
Heightened Def Con from 0.186586 to 0.186586
Heightened Def Con from 0.186596 to 0.186596
Heightened Def Con from 0.186596 to 0.186596
Heightened Def Con from 0.186596 to 0.186596
Heightened Def Con from 0.186599 to 0.186599
Heightened Def Con from 0.186613 to 0.186613
Heightened Def Con from 0.186629 to 0.186629
Heightened Def Con from 0.186629 to 0.186629
Heightened Def Con from 0.186629 to 0.186629
Heightened Def Con from 0.186629 to 0.186629
Heightened Def Con from 0.186629 to 0.186629
Heightened Def Con from 0.186633 to 0.186633
Heightened Def Con from 0.186633 to 0.186633
Heightened Def Con from 0.186635 to 0.186635
Heightened Def Con from 0.186646 to 0.186646
Heightened Def Con from 0.186646 to 0.186646
Heightened Def Con from 0.186646 to 0.186646
Heightened Def Con from 0.186649 to 0.186649
Heightened Def Con from 0.186651 to 0.186651
Heightened Def Con from 0.186662 to 0.186662
Heightened Def Con from 0.186662 to 0.186662
Heightened Def Con from 0.186666 to 0.186666
Heightened Def Con from 0.186666 to 0.186666
Heightened Def Con from 0.186666 to 0.186666
Heightened Def Con from 0.186668 to 0.186668
Heightened Def Con from 0.186669 to 0.186669
Heightened Def Con from 0.186679 to 0.186679
Heightened Def Con from 0.186679 to 0.186679
Heightened Def Con from 0.186682 to 0.186682
Heightened Def Con from 0.186682 to 0.186682
Heightened Def Con from 0.186684 to 0.186684
Heightened Def Con from 0.186695 to 0.186695
Heightened Def Con from 0.186695 to 0.186695
Heightened Def Con from 0.186699 to 0.186699
Heightened Def Con from 0.186699 to 0.186699
Heightened Def Con from 0.186701 to 0.186701
Heightened Def Con from 0.186712 to 0.186712
Heightened Def Con from 0.186712 to 0.186712
Heightened Def Con from 0.186712 to 0.186712
Heightened Def Con from 0.186712 to 0.186712
Heightened Def Con from 0.186715 to 0.186715
Heightened Def Con from 0.186728 to 0.186728
Heightened Def Con from 0.186728 to 0.186728
Heightened Def Con from 0.186728 to 0.186728
Heightened Def Con from 0.186732 to 0.186732
Heightened Def Con from 0.186745 to 0.186745
Heightened Def Con from 0.186745 to 0.186745
Heightened Def Con from 0.186745 to 0.186745
Heightened Def Con from 0.186745 to 0.186745
Heightened Def Con from 0.186748 to 0.186748
Heightened Def Con from 0.186749 to 0.186749
Heightened Def Con from 0.18675 to 0.18675
Heightened Def Con from 0.186762 to 0.186762
Heightened Def Con from 0.186762 to 0.186762
Heightened Def Con from 0.186765 to 0.186765
Heightened Def Con from 0.186765 to 0.186765
Heightened Def Con from 0.186778 to 0.186778
Heightened Def Con from 0.186778 to 0.186778
Heightened Def Con from 0.186782 to 0.186782
Heightened Def Con from 0.186782 to 0.186782
Heightened Def Con from 0.186784 to 0.186784
Heightened Def Con from 0.186795 to 0.186795
Heightened Def Con from 0.186795 to 0.186795
Heightened Def Con from 0.186798 to 0.186798
Heightened Def Con from 0.1868 to 0.1868
Heightened Def Con from 0.186811 to 0.186811
Heightened Def Con from 0.186811 to 0.186811
Heightened Def Con from 0.186815 to 0.186815
Heightened Def Con from 0.186815 to 0.186815
Heightened Def Con from 0.186817 to 0.186817
Heightened Def Con from 0.186826 to 0.186826
Heightened Def Con from 0.186828 to 0.186828
Heightened Def Con from 0.186828 to 0.186828
Heightened Def Con from 0.186828 to 0.186828
Heightened Def Con from 0.186844 to 0.186844
Heightened Def Con from 0.186844 to 0.186844
Heightened Def Con from 0.186844 to 0.186844
Heightened Def Con from 0.186844 to 0.186844
Heightened Def Con from 0.186848 to 0.186848
Heightened Def Con from 0.186861 to 0.186861
Heightened Def Con from 0.186864 to 0.186864
Heightened Def Con from 0.186864 to 0.186864
Heightened Def Con from 0.186866 to 0.186866
Heightened Def Con from 0.186867 to 0.186867
Heightened Def Con from 0.186877 to 0.186877
Heightened Def Con from 0.186877 to 0.186877
Heightened Def Con from 0.186877 to 0.186877
Heightened Def Con from 0.186881 to 0.186881
Heightened Def Con from 0.186893 to 0.186893
Heightened Def Con from 0.186894 to 0.186894
Heightened Def Con from 0.186894 to 0.186894
Heightened Def Con from 0.186894 to 0.186894
Heightened Def Con from 0.186898 to 0.186898
Heightened Def Con from 0.186899 to 0.186899
Heightened Def Con from 0.186911 to 0.186911
Heightened Def Con from 0.186911 to 0.186911
Heightened Def Con from 0.186927 to 0.186927
Heightened Def Con from 0.186927 to 0.186927
Heightened Def Con from 0.186931 to 0.186931
Heightened Def Con from 0.186943 to 0.186944
Heightened Def Con from 0.186944 to 0.186944
Heightened Def Con from 0.186947 to 0.186947
Heightened Def Con from 0.186947 to 0.186947
Heightened Def Con from 0.18696 to 0.18696
Heightened Def Con from 0.18696 to 0.18696
Heightened Def Con from 0.18696 to 0.18696
Heightened Def Con from 0.186964 to 0.186964
Heightened Def Con from 0.186964 to 0.186964
Heightened Def Con from 0.186966 to 0.186966
Heightened Def Con from 0.186975 to 0.186975
Heightened Def Con from 0.186977 to 0.186977
Heightened Def Con from 0.186977 to 0.186977
Heightened Def Con from 0.186977 to 0.186977
Heightened Def Con from 0.186993 to 0.186993
Heightened Def Con from 0.186993 to 0.186993
Heightened Def Con from 0.186993 to 0.186993
Heightened Def Con from 0.186997 to 0.186997
Heightened Def Con from 0.18701 to 0.18701
Heightened Def Con from 0.18701 to 0.18701
Heightened Def Con from 0.18701 to 0.18701
Heightened Def Con from 0.18701 to 0.18701
Heightened Def Con from 0.187013 to 0.187013
Heightened Def Con from 0.187026 to 0.187026
Heightened Def Con from 0.187026 to 0.187026
Heightened Def Con from 0.18703 to 0.18703
Heightened Def Con from 0.18703 to 0.18703
Heightened Def Con from 0.187043 to 0.187043
Heightened Def Con from 0.187043 to 0.187043
Heightened Def Con from 0.187043 to 0.187043
Heightened Def Con from 0.187043 to 0.187043
Heightened Def Con from 0.187046 to 0.187046
Heightened Def Con from 0.187047 to 0.187047
Heightened Def Con from 0.18706 to 0.18706
Heightened Def Con from 0.18706 to 0.18706
Heightened Def Con from 0.187063 to 0.187063
Heightened Def Con from 0.187063 to 0.187063
Heightened Def Con from 0.187076 to 0.187076
Heightened Def Con from 0.18708 to 0.18708
Heightened Def Con from 0.187093 to 0.187093
Heightened Def Con from 0.187093 to 0.187093
Heightened Def Con from 0.187093 to 0.187093
Heightened Def Con from 0.187109 to 0.187109
Heightened Def Con from 0.187109 to 0.187109
Heightened Def Con from 0.187109 to 0.187109
Heightened Def Con from 0.187113 to 0.187113
Heightened Def Con from 0.187113 to 0.187113
Heightened Def Con from 0.187113 to 0.187113
Heightened Def Con from 0.187126 to 0.187126
Heightened Def Con from 0.187126 to 0.187126
Heightened Def Con from 0.187129 to 0.187129
Heightened Def Con from 0.187129 to 0.187129
Heightened Def Con from 0.187142 to 0.187142
Heightened Def Con from 0.187142 to 0.187142
Heightened Def Con from 0.187146 to 0.187146
Heightened Def Con from 0.187159 to 0.187159
Heightened Def Con from 0.187159 to 0.187159
Heightened Def Con from 0.187159 to 0.187159
Heightened Def Con from 0.187159 to 0.187159
Heightened Def Con from 0.187164 to 0.187164
Heightened Def Con from 0.187175 to 0.187175
Heightened Def Con from 0.187175 to 0.187175
Heightened Def Con from 0.187192 to 0.187192
Heightened Def Con from 0.187192 to 0.187192
Heightened Def Con from 0.187192 to 0.187192
Heightened Def Con from 0.187195 to 0.187195
Heightened Def Con from 0.187209 to 0.187209
Heightened Def Con from 0.187209 to 0.187209
Heightened Def Con from 0.187212 to 0.187212
Heightened Def Con from 0.187225 to 0.187225
Heightened Def Con from 0.187225 to 0.187225
Heightened Def Con from 0.187229 to 0.187229
Heightened Def Con from 0.187242 to 0.187242
Heightened Def Con from 0.187242 to 0.187242
Heightened Def Con from 0.187242 to 0.187242
Heightened Def Con from 0.187258 to 0.187258
Heightened Def Con from 0.187258 to 0.187258
Heightened Def Con from 0.187258 to 0.187258
Heightened Def Con from 0.187258 to 0.187258
Heightened Def Con from 0.187262 to 0.187262
Heightened Def Con from 0.187275 to 0.187275
Heightened Def Con from 0.187275 to 0.187275
Heightened Def Con from 0.187278 to 0.187278
Heightened Def Con from 0.187291 to 0.187291
Heightened Def Con from 0.187295 to 0.187295
Heightened Def Con from 0.187297 to 0.187297
Heightened Def Con from 0.187308 to 0.187308
Heightened Def Con from 0.187308 to 0.187308
Heightened Def Con from 0.187308 to 0.187308
Heightened Def Con from 0.187311 to 0.187311
Heightened Def Con from 0.187311 to 0.187311
Heightened Def Con from 0.187324 to 0.187324
Heightened Def Con from 0.187324 to 0.187324
Heightened Def Con from 0.187341 to 0.187341
Heightened Def Con from 0.187347 to 0.187347
Heightened Def Con from 0.187356 to 0.187356
Heightened Def Con from 0.187358 to 0.187358
Heightened Def Con from 0.187358 to 0.187358
Heightened Def Con from 0.187361 to 0.187361
Heightened Def Con from 0.187361 to 0.187361
Heightened Def Con from 0.187373 to 0.187373
Heightened Def Con from 0.187374 to 0.187374
Heightened Def Con from 0.187374 to 0.187374
Heightened Def Con from 0.187378 to 0.187378
Heightened Def Con from 0.187378 to 0.187378
Heightened Def Con from 0.187391 to 0.187391
Heightened Def Con from 0.187391 to 0.187391
Heightened Def Con from 0.187394 to 0.187394
Heightened Def Con from 0.187394 to 0.187394
Heightened Def Con from 0.187407 to 0.187407
Heightened Def Con from 0.187407 to 0.187407
Heightened Def Con from 0.187407 to 0.187407
Heightened Def Con from 0.187424 to 0.187424
Heightened Def Con from 0.187427 to 0.187427
Heightened Def Con from 0.18744 to 0.18744
Heightened Def Con from 0.18744 to 0.18744
Heightened Def Con from 0.187444 to 0.187444
Heightened Def Con from 0.187444 to 0.187444
Heightened Def Con from 0.187457 to 0.187457
Heightened Def Con from 0.187457 to 0.187457
Heightened Def Con from 0.18746 to 0.18746
Heightened Def Con from 0.187473 to 0.187473
Heightened Def Con from 0.187473 to 0.187473
Heightened Def Con from 0.187474 to 0.187474
Heightened Def Con from 0.187477 to 0.187477
Heightened Def Con from 0.18749 to 0.18749
Heightened Def Con from 0.18749 to 0.18749
Heightened Def Con from 0.18749 to 0.18749
Heightened Def Con from 0.18749 to 0.18749
Heightened Def Con from 0.187494 to 0.187494
Heightened Def Con from 0.187507 to 0.187507
Heightened Def Con from 0.18751 to 0.18751
Heightened Def Con from 0.18751 to 0.18751
Heightened Def Con from 0.187523 to 0.187523
Heightened Def Con from 0.187527 to 0.187527
Heightened Def Con from 0.18754 to 0.18754
Heightened Def Con from 0.18754 to 0.18754
Heightened Def Con from 0.18754 to 0.18754
Heightened Def Con from 0.187556 to 0.187556
Heightened Def Con from 0.187556 to 0.187556
Heightened Def Con from 0.187556 to 0.187556
Heightened Def Con from 0.18756 to 0.18756
Heightened Def Con from 0.187573 to 0.187573
Heightened Def Con from 0.187573 to 0.187573
Heightened Def Con from 0.187589 to 0.187589
Heightened Def Con from 0.187589 to 0.187589
Heightened Def Con from 0.187606 to 0.187606
Heightened Def Con from 0.187606 to 0.187606
Heightened Def Con from 0.187606 to 0.187606
Heightened Def Con from 0.187609 to 0.187609
Heightened Def Con from 0.187622 to 0.187622
Heightened Def Con from 0.187622 to 0.187622
Heightened Def Con from 0.187622 to 0.187622
Heightened Def Con from 0.187622 to 0.187622
Heightened Def Con from 0.187626 to 0.187626
Heightened Def Con from 0.187628 to 0.187628
Heightened Def Con from 0.187639 to 0.187639
Heightened Def Con from 0.187639 to 0.187639
Heightened Def Con from 0.187656 to 0.187656
Heightened Def Con from 0.187656 to 0.187656
Heightened Def Con from 0.187659 to 0.187659
Heightened Def Con from 0.187672 +to 0.187672
Heightened Def Con from 0.187672 to 0.187672
Heightened Def Con from 0.187672 to 0.187672
Heightened Def Con from 0.187672 to 0.187672
Heightened Def Con from 0.187676 to 0.187676
Heightened Def Con from 0.187676 to 0.187676
Heightened Def Con from 0.187689 to 0.187689
Heightened Def Con from 0.187689 to 0.187689
Heightened Def Con from 0.187689 to 0.187689
Heightened Def Con from 0.187689 to 0.187689
Heightened Def Con from 0.187692 to 0.187692
Heightened Def Con from 0.187705 to 0.187705
Heightened Def Con from 0.187705 to 0.187705
Heightened Def Con from 0.187709 to 0.187709
Heightened Def Con from 0.187722 to 0.187722
Heightened Def Con from 0.187722 to 0.187722
Heightened Def Con from 0.187722 to 0.187722
Heightened Def Con from 0.187725 to 0.187725
Heightened Def Con from 0.187738 to 0.187738
Heightened Def Con from 0.187742 to 0.187742
Heightened Def Con from 0.187755 to 0.187755
Heightened Def Con from 0.187755 to 0.187755
Heightened Def Con from 0.187755 to 0.187755
Heightened Def Con from 0.187755 to 0.187755
Heightened Def Con from 0.187758 to 0.187758
Heightened Def Con from 0.18776 to 0.18776
Heightened Def Con from 0.187771 to 0.187771
Heightened Def Con from 0.187771 to 0.187771
Heightened Def Con from 0.187771 to 0.187771
Heightened Def Con from 0.187772 to 0.187772
Heightened Def Con from 0.187772 to 0.187772
Heightened Def Con from 0.187775 to 0.187775
Heightened Def Con from 0.187788 to 0.187788
Heightened Def Con from 0.187788 to 0.187788
Heightened Def Con from 0.187788 to 0.187788
Heightened Def Con from 0.187792 to 0.187792
Heightened Def Con from 0.187803 to 0.187803
Heightened Def Con from 0.187805 to 0.187805
Heightened Def Con from 0.187808 to 0.187808
Heightened Def Con from 0.187808 to 0.187808
Heightened Def Con from 0.187821 to 0.187821
Heightened Def Con from 0.187825 to 0.187825
Heightened Def Con from 0.187838 to 0.187838
Heightened Def Con from 0.187838 to 0.187838
Heightened Def Con from 0.187838 to 0.187838
Heightened Def Con from 0.187841 to 0.187841
Heightened Def Con from 0.187853 to 0.187853
Heightened Def Con from 0.187854 to 0.187854
Heightened Def Con from 0.187854 to 0.187854
Heightened Def Con from 0.187858 to 0.187858
Heightened Def Con from 0.187871 to 0.187871
Heightened Def Con from 0.187871 to 0.187871
Heightened Def Con from 0.187874 to 0.187874
Heightened Def Con from 0.187887 to 0.187887
Heightened Def Con from 0.187887 to 0.187887
Heightened Def Con from 0.187887 to 0.187887
Heightened Def Con from 0.187887 to 0.187887
Heightened Def Con from 0.187904 to 0.187904
Heightened Def Con from 0.187904 to 0.187904
Heightened Def Con from 0.187909 to 0.187909
Heightened Def Con from 0.187921 to 0.187921
Heightened Def Con from 0.187921 to 0.187921
Heightened Def Con from 0.187924 to 0.187924
Heightened Def Con from 0.187937 to 0.187937
Heightened Def Con from 0.18794 to 0.18794
Heightened Def Con from 0.187941 to 0.187941
Heightened Def Con from 0.187954 to 0.187954
Heightened Def Con from 0.187954 to 0.187954
Heightened Def Con from 0.187954 to 0.187954
Heightened Def Con from 0.187954 to 0.187954
Heightened Def Con from 0.187957 to 0.187957
Heightened Def Con from 0.187959 to 0.187959
Heightened Def Con from 0.18797 to 0.18797
Heightened Def Con from 0.18797 to 0.18797
Heightened Def Con from 0.18797 to 0.18797
Heightened Def Con from 0.187974 to 0.187974
Heightened Def Con from 0.187974 to 0.187974
Heightened Def Con from 0.187987 to 0.187987
Heightened Def Con from 0.187987 to 0.187987
Heightened Def Con from 0.187987 to 0.187987
Heightened Def Con from 0.187987 to 0.187987
Heightened Def Con from 0.18799 to 0.18799
Heightened Def Con from 0.188003 to 0.188003
Heightened Def Con from 0.188003 to 0.188003
Heightened Def Con from 0.188007 to 0.188007
Heightened Def Con from 0.18802 to 0.18802
Heightened Def Con from 0.18802 to 0.18802
Heightened Def Con from 0.188023 to 0.188023
Heightened Def Con from 0.188023 to 0.188023
Heightened Def Con from 0.188036 to 0.188036
Heightened Def Con from 0.188036 to 0.188036
Heightened Def Con from 0.18804 to 0.18804
Heightened Def Con from 0.188051 to 0.188051
Heightened Def Con from 0.188053 to 0.188053
Heightened Def Con from 0.188053 to 0.188053
Heightened Def Con from 0.188053 to 0.188053
Heightened Def Con from 0.188068 to 0.188068
Heightened Def Con from 0.18807 to 0.18807
Heightened Def Con from 0.18807 to 0.18807
Heightened Def Con from 0.188073 to 0.188073
Heightened Def Con from 0.188086 to 0.188086
Heightened Def Con from 0.188086 to 0.188086
Heightened Def Con from 0.18809 to 0.18809
Heightened Def Con from 0.188103 to 0.188103
Heightened Def Con from 0.188103 to 0.188103
Heightened Def Con from 0.188106 to 0.188106
Heightened Def Con from 0.188119 to 0.188119
Heightened Def Con from 0.188119 to 0.188119
Heightened Def Con from 0.188123 to 0.188123
Heightened Def Con from 0.188136 to 0.188136
Heightened Def Con from 0.188136 to 0.188136
Heightened Def Con from 0.188136 to 0.188136
Heightened Def Con from 0.188139 to 0.188139
Heightened Def Con from 0.188152 to 0.188152
Heightened Def Con from 0.188156 to 0.188156
Heightened Def Con from 0.188156 to 0.188156
Heightened Def Con from 0.188169 to 0.188169
Heightened Def Con from 0.188169 to 0.188169
Heightened Def Con from 0.188172 to 0.188172
Heightened Def Con from 0.188172 to 0.188172
Heightened Def Con from 0.188174 to 0.188174
Heightened Def Con from 0.188185 to 0.188185
Heightened Def Con from 0.188185 to 0.188185
Heightened Def Con from 0.188185 to 0.188185
Heightened Def Con from 0.188189 to 0.188189
Heightened Def Con from 0.188189 to 0.188189
Heightened Def Con from 0.188202 to 0.188202
Heightened Def Con from 0.188202 to 0.188202
Heightened Def Con from 0.188202 to 0.188202
Heightened Def Con from 0.188205 to 0.188205
Heightened Def Con from 0.188219 to 0.188219
Heightened Def Con from 0.188222 to 0.188222
Heightened Def Con from 0.188222 to 0.188222
Heightened Def Con from 0.188235 to 0.188235
Heightened Def Con from 0.188235 to 0.188235
Heightened Def Con from 0.188239 to 0.188239
Heightened Def Con from 0.188252 to 0.188252
Heightened Def Con from 0.188252 to 0.188252
Heightened Def Con from 0.188252 to 0.188252
Heightened Def Con from 0.188267 to 0.188267
Heightened Def Con from 0.188268 to 0.188268
Heightened Def Con from 0.188268 to 0.188268
Heightened Def Con from 0.188268 to 0.188268
Heightened Def Con from 0.188272 to 0.188272
Heightened Def Con from 0.188285 to 0.188285
Heightened Def Con from 0.18829 to 0.18829
Heightened Def Con from 0.188301 to 0.188301
Heightened Def Con from 0.188305 to 0.188305
Heightened Def Con from 0.188317 to 0.188317
Heightened Def Con from 0.188318 to 0.188318
Heightened Def Con from 0.188318 to 0.188318
Heightened Def Con from 0.188318 to 0.188318
Heightened Def Con from 0.188318 to 0.188318
Heightened Def Con from 0.188321 to 0.188321
Heightened Def Con from 0.188334 to 0.188334
Heightened Def Con from 0.188335 to 0.188335
Heightened Def Con from 0.188335 to 0.188335
Heightened Def Con from 0.188338 to 0.188338
Heightened Def Con from 0.188351 to 0.188351
Heightened Def Con from 0.188351 to 0.188351
Heightened Def Con from 0.188354 to 0.188354
Heightened Def Con from 0.188354 to 0.188354
Heightened Def Con from 0.188368 to 0.188368
Heightened Def Con from 0.188371 to 0.188371
Heightened Def Con from 0.188384 to 0.188384
Heightened Def Con from 0.188384 to 0.188384
Heightened Def Con from 0.188384 to 0.188384
Heightened Def Con from 0.188388 to 0.188388
Heightened Def Con from 0.188401 to 0.188401
Heightened Def Con from 0.188417 to 0.188417
Heightened Def Con from 0.188417 to 0.188417
Heightened Def Con from 0.188417 to 0.188417
Heightened Def Con from 0.188421 to 0.188421
Heightened Def Con from 0.188423 to 0.188423
Heightened Def Con from 0.188434 to 0.188434
Heightened Def Con from 0.188434 to 0.188434
Heightened Def Con from 0.18845 to 0.18845
Heightened Def Con from 0.18845 to 0.18845
Heightened Def Con from 0.188454 to 0.188454
Heightened Def Con from 0.188467 to 0.188467
Heightened Def Con from 0.188467 to 0.188467
Heightened Def Con from 0.188467 to 0.188467
Heightened Def Con from 0.18847 to 0.18847
Heightened Def Con from 0.18847 to 0.18847
Heightened Def Con from 0.188483 to 0.188483
Heightened Def Con from 0.188484 to 0.188484
Heightened Def Con from 0.188484 to 0.188484
Heightened Def Con from 0.188487 to 0.188487
Heightened Def Con from 0.188487 to 0.188487
Heightened Def Con from 0.1885 to 0.1885
Heightened Def Con from 0.1885 to 0.1885
Heightened Def Con from 0.188505 to 0.188505
Heightened Def Con from 0.188506 to 0.188506
Heightened Def Con from 0.188517 to 0.188517
Heightened Def Con from 0.188517 to 0.188517
Heightened Def Con from 0.188517 to 0.188517
Heightened Def Con from 0.18852 to 0.18852
Heightened Def Con from 0.18852 to 0.18852
Heightened Def Con from 0.188533 to 0.188533
Heightened Def Con from 0.188533 to 0.188533
Heightened Def Con from 0.18855 to 0.18855
Heightened Def Con from 0.18855 to 0.18855
Heightened Def Con from 0.18855 to 0.18855
Heightened Def Con from 0.188566 to 0.188566
Heightened Def Con from 0.188566 to 0.188566
Heightened Def Con from 0.188566 to 0.188566
Heightened Def Con from 0.188566 to 0.188566
Heightened Def Con from 0.18857 to 0.18857
Heightened Def Con from 0.18857 to 0.18857
Heightened Def Con from 0.188583 to 0.188583
Heightened Def Con from 0.188583 to 0.188583
Heightened Def Con from 0.188588 to 0.188588
Heightened Def Con from 0.188599 to 0.188599
Heightened Def Con from 0.188599 to 0.188599
Heightened Def Con from 0.188603 to 0.188603
Heightened Def Con from 0.188615 to 0.188615
Heightened Def Con from 0.188616 to 0.188616
Heightened Def Con from 0.188616 to 0.188616
Heightened Def Con from 0.188616 to 0.188616
Heightened Def Con from 0.188619 to 0.188619
Heightened Def Con from 0.188621 to 0.188621
Heightened Def Con from 0.188633 to 0.188633
Heightened Def Con from 0.188633 to 0.188633
Heightened Def Con from 0.188649 to 0.188649
Heightened Def Con from 0.188649 to 0.188649
Heightened Def Con from 0.188649 to 0.188649
Heightened Def Con from 0.188649 to 0.188649
Heightened Def Con from 0.188653 to 0.188653
Heightened Def Con from 0.188666 to 0.188666
Heightened Def Con from 0.188666 to 0.188666
Heightened Def Con from 0.188666 to 0.188666
Heightened Def Con from 0.188669 to 0.188669
Heightened Def Con from 0.188669 to 0.188669
Heightened Def Con from 0.188682 to 0.188682
Heightened Def Con from 0.188682 to 0.188682
Heightened Def Con from 0.188682 to 0.188682
Heightened Def Con from 0.188682 to 0.188682
Heightened Def Con from 0.188686 to 0.188686
Heightened Def Con from 0.188687 to 0.188687
Heightened Def Con from 0.188688 to 0.188688
Heightened Def Con from 0.188699 to 0.188699
Heightened Def Con from 0.188699 to 0.188699
Heightened Def Con from 0.188699 to 0.188699
Heightened Def Con from 0.188704 to 0.188704
Heightened Def Con from 0.188715 to 0.188715
Heightened Def Con from 0.188719 to 0.188719
Heightened Def Con from 0.188732 to 0.188732
Heightened Def Con from 0.188732 to 0.188732
Heightened Def Con from 0.188735 to 0.188735
Heightened Def Con from 0.188747 to 0.188747
Heightened Def Con from 0.188749 to 0.188749
Heightened Def Con from 0.188749 to 0.188749
Heightened Def Con from 0.188752 to 0.188752
Heightened Def Con from 0.188752 to 0.188752
Heightened Def Con from 0.188765 to 0.188765
Heightened Def Con from 0.188765 to 0.188765
Heightened Def Con from 0.188765 to 0.188765
Heightened Def Con from 0.188769 to 0.188769
Heightened Def Con from 0.188769 to 0.188769
Heightened Def Con from 0.188782 to 0.188782
Heightened Def Con from 0.188782 to 0.188782
Heightened Def Con from 0.188782 to 0.188782
Heightened Def Con from 0.188782 to 0.188782
Heightened Def Con from 0.188785 to 0.188785
Heightened Def Con from 0.188787 to 0.188787
Heightened Def Con from 0.188788 to 0.188788
Heightened Def Con from 0.188798 to 0.188798
Heightened Def Con from 0.188798 to 0.188798
Heightened Def Con from 0.188802 to 0.188802
Heightened Def Con from 0.188815 to 0.188815
Heightened Def Con from 0.188815 to 0.188815
Heightened Def Con from 0.188815 to 0.188815
Heightened Def Con from 0.18882 to 0.18882
Heightened Def Con from 0.188821 to 0.188821
Heightened Def Con from 0.188821 to 0.188821
Heightened Def Con from 0.188831 to 0.188831
Heightened Def Con from 0.188831 to 0.188831
Heightened Def Con from 0.188835 to 0.188835
Heightened Def Con from 0.188848 to 0.188848
Heightened Def Con from 0.188848 to 0.188848
Heightened Def Con from 0.188851 to 0.188851
Heightened Def Con from 0.188851 to 0.188851
Heightened Def Con from 0.188851 to 0.188851
Heightened Def Con from 0.188853 to 0.188853
Heightened Def Con from 0.188865 to 0.188865
Heightened Def Con from 0.188865 to 0.188865
Heightened Def Con from 0.188865 to 0.188865
Heightened Def Con from 0.188868 to 0.188868
Heightened Def Con from 0.188881 to 0.188881
Heightened Def Con from 0.188881 to 0.188881
Heightened Def Con from 0.188898 to 0.188898
Heightened Def Con from 0.188898 to 0.188898
Heightened Def Con from 0.188898 to 0.188898
Heightened Def Con from 0.188898 to 0.188898
Heightened Def Con from 0.188901 to 0.188901
Heightened Def Con from 0.188901 to 0.188901
Heightened Def Con from 0.188903 to 0.188903
Heightened Def Con from 0.188904 to 0.188904
Heightened Def Con from 0.188914 to 0.188914
Heightened Def Con from 0.188931 to 0.188931
Heightened Def Con from 0.188931 to 0.188931
Heightened Def Con from 0.188934 to 0.188934
Heightened Def Con from 0.188947 to 0.188947
Heightened Def Con from 0.188947 to 0.188947
Heightened Def Con from 0.188951 to 0.188951
Heightened Def Con from 0.188951 to 0.188951
Heightened Def Con from 0.188952 to 0.188952
Heightened Def Con from 0.188964 to 0.188964
Heightened Def Con from 0.188964 to 0.188964
Heightened Def Con from 0.188967 to 0.188967
Heightened Def Con from 0.18898 to 0.18898
Heightened Def Con from 0.18898 to 0.18898
Heightened Def Con from 0.18898 to 0.18898
Heightened Def Con from 0.188981 to 0.188981
Heightened Def Con from 0.188984 to 0.188984
Heightened Def Con from 0.188997 to 0.188997
Heightened Def Con from 0.189 to 0.189
Heightened Def Con from 0.189012 to 0.189012
Heightened Def Con from 0.189014 to 0.189014
Heightened Def Con from 0.18903 to 0.18903
Heightened Def Con from 0.18903 to 0.18903
Heightened Def Con from 0.18903 to 0.18903
Heightened Def Con from 0.189034 to 0.189034
Heightened Def Con from 0.189035 to 0.189035
Heightened Def Con from 0.189047 to 0.189047
Heightened Def Con from 0.189047 to 0.189047
Heightened Def Con from 0.18905 to 0.18905
Heightened Def Con from 0.189063 to 0.189063
Heightened Def Con from 0.189067 to 0.189067
Heightened Def Con from 0.18908 to 0.18908
Heightened Def Con from 0.189083 to 0.189083
Heightened Def Con from 0.189096 to 0.189097
Heightened Def Con from 0.189097 to 0.189097
Heightened Def Con from 0.189102 to 0.189102
Heightened Def Con from 0.189113 to 0.189113
Heightened Def Con from 0.189113 to 0.189113
Heightened Def Con from 0.189113 to 0.189113
Heightened Def Con from 0.189118 to 0.189118
Heightened Def Con from 0.18913 to 0.18913
Heightened Def Con from 0.18913 to 0.18913
Heightened Def Con from 0.18913 to 0.18913
Heightened Def Con from 0.189135 to 0.189135
Heightened Def Con from 0.189136 to 0.189136
Heightened Def Con from 0.189146 to 0.189146
Heightened Def Con from 0.189146 to 0.189146
Heightened Def Con from 0.18915 to 0.18915
Heightened Def Con from 0.18915 to 0.18915
Heightened Def Con from 0.189163 to 0.189163
Heightened Def Con from 0.189163 to 0.189163
Heightened Def Con from 0.189166 to 0.189166
Heightened Def Con from 0.189168 to 0.189168
Heightened Def Con from 0.189169 to 0.189169
Heightened Def Con from 0.189179 to 0.189179
Heightened Def Con from 0.189179 to 0.189179
Heightened Def Con from 0.189179 to 0.189179
Heightened Def Con from 0.189179 to 0.189179
Heightened Def Con from 0.189183 to 0.189183
Heightened Def Con from 0.189196 to 0.189196
Heightened Def Con from 0.189196 to 0.189196
Heightened Def Con from 0.189196 to 0.189196
Heightened Def Con from 0.189196 to 0.189196
Heightened Def Con from 0.189196 to 0.189196
Heightened Def Con from 0.189213 to 0.189213
Heightened Def Con from 0.189216 to 0.189216
Heightened Def Con from 0.189216 to 0.189216
Heightened Def Con from 0.189228 to 0.189228
Heightened Def Con from 0.189229 to 0.189229
Heightened Def Con from 0.189229 to 0.189229
Heightened Def Con from 0.189229 to 0.189229
Heightened Def Con from 0.189229 to 0.189229
Heightened Def Con from 0.189232 to 0.189232
Heightened Def Con from 0.189244 to 0.189244
Heightened Def Con from 0.189246 to 0.189246
Heightened Def Con from 0.189249 to 0.189249
Heightened Def Con from 0.189262 to 0.189262
Heightened Def Con from 0.189262 to 0.189262
Heightened Def Con from 0.189262 to 0.189262
Heightened Def Con from 0.189266 to 0.189266
Heightened Def Con from 0.189267 to 0.189267
Heightened Def Con from 0.189268 to 0.189268
Heightened Def Con from 0.189268 to 0.189268
Heightened Def Con from 0.189279 to 0.189279
Heightened Def Con from 0.189279 to 0.189279
Heightened Def Con from 0.189282 +to 0.189282

Date: Sun Aug 30 10:51:03 2020
Total elapsed time: 272.849 seconds.

tnom = 27
temp = 27
method = modified trap
totiter = 4913420
traniter = 700464
tranpoints = 150751
accept = 102157
rejected = 258071
matrix size = 504
fillins = 3237
solver = Normal
Thread vector: 41.0/14.9[13] 9.7/4.6[13] 15.9/4.2[13] 1.5/2.3[1]  2592/500
Matrix Compiler1: 542.39 KB object code size  76.7/30.6/[17.8]
Matrix Compiler2: 98.31 KB object code size  9.8/9.2/[2.7]

