Circuit: * C:\work\E344\E344\Ass2\LTSpice\E344_Ass2_template.asc

Direct Newton iteration failed to find .op point.  (Use ".option noopiter" to skip.)
Starting Gmin stepping
Gmin = 10
Gmin = 1.07374
Gmin = 0.115292
Gmin = 0.0123794
Gmin = 0.00132923
Gmin = 0.000142725
vernier = 0.5
vernier = 0.25
vernier = 0.125
vernier = 0.0625
Gmin = 9.13439e-005
vernier = 0.03125
vernier = 0.015625
vernier = 0.0208333
Gmin = 8.91164e-005
vernier = 0.0277778
Gmin = 8.38783e-005
vernier = 0.037037
vernier = 0.0493827
Gmin = 7.59698e-005
vernier = 0.0658435
vernier = 0.0877914
Gmin = 6.49654e-005
vernier = 0.117055
Gmin = 5.04551e-005
vernier = 0.156073
vernier = 0.208098
Gmin = 3.34627e-005
vernier = 0.277464
vernier = 0.369952
Gmin = 1.75917e-005
vernier = 0.493269
Gmin = 6.31995e-006
vernier = 0.657691
vernier = 0.876922
Gmin = 1.24534e-006
vernier = 1
vernier = 0.5
vernier = 0.25
vernier = 0.125
vernier = 0.0625
vernier = 0.03125
Gmin = 5.49696e-007
vernier = 0.015625
vernier = 0.0078125
vernier = 0.00390625
vernier = 0.00195313
vernier = 0.000976563
vernier = 0.000488281
Gmin = 0
Gmin stepping failed

Starting source stepping with srcstepmethod=0
Source Step = 3.0303%
vernier = 0.25
Source Step = 7.57576%
Source Step = 15.1515%
Source Step = 18.5724%
Source Step = 18.6908%
Source Step = 18.8092%
Source Step = 18.9276%
Source Step = 19.0459%
Source Step = 19.1643%
vernier = 0.00585938
Source Step = 19.3419%
Source Step = 19.5194%
Source Step = 19.697%
Source Step = 19.8745%
Source Step = 20.0521%
vernier = 0.00878906
Source Step = 20.3095%
Source Step = 20.5759%
Source Step = 20.8422%
Source Step = 21.1085%
Source Step = 21.3749%
vernier = 0.0131836
Source Step = 21.7478%
Source Step = 22.1473%
Source Step = 22.5468%
Source Step = 22.9463%
Source Step = 23.3458%
vernier = 0.0197754
Source Step = 23.8851%
Source Step = 24.4843%
Source Step = 25.0836%
Source Step = 25.6829%
Source Step = 26.2821%
vernier = 0.0296631
Source Step = 27.0611%
Source Step = 27.3589%
Source Step = 27.4151%
Source Step = 27.4713%
Source Step = 27.5274%
Source Step = 27.5836%
Source Step = 27.6398%
Source Step = 27.696%
vernier = 0.00278091
Source Step = 27.755%
Source Step = 27.8392%
Source Step = 27.9235%
Source Step = 28.0078%
Source Step = 28.092%
Source Step = 28.1763%
vernier = 0.00417137
Source Step = 28.3027%
Source Step = 28.4291%
Source Step = 28.5555%
Source Step = 28.6819%
Source Step = 28.8083%
vernier = 0.00625706
Source Step = 28.9916%
Source Step = 29.1812%
Source Step = 29.3708%
Source Step = 29.5605%
Source Step = 29.7501%
vernier = 0.00938559
Source Step = 30.0155%
Source Step = 30.2999%
Source Step = 30.5843%
Source Step = 30.8687%
Source Step = 31.1532%
vernier = 0.0140784
Source Step = 31.5371%
Source Step = 31.9637%
Source Step = 32.3903%
Source Step = 32.817%
Source Step = 33.2436%
vernier = 0.0211176
Source Step = 33.7982%
Source Step = 34.4381%
Source Step = 35.078%
Source Step = 35.718%
Source Step = 36.3579%
vernier = 0.0316764
Source Step = 37.1578%
Source Step = 38.1177%
Source Step = 39.0776%
Source Step = 40.0375%
Source Step = 40.9974%
vernier = 0.0475145
Source Step = 42.1492%
Source Step = 43.5891%
Source Step = 45.0289%
Source Step = 46.4687%
Source Step = 47.9086%
vernier = 0.0712718
Source Step = 49.5644%
Source Step = 51.7241%
Source Step = 53.8839%
Source Step = 56.0436%
Source Step = 58.2034%
vernier = 0.106908
Source Step = 60.5791%
Source Step = 63.8187%
Source Step = 67.0584%
Source Step = 70.298%
Source Step = 73.5376%
vernier = 0.160362
Source Step = 76.9392%
Source Step = 81.7987%
Source Step = 86.6581%
Source Step = 91.5175%
vernier = 0.0400904
Source Step = 91.0923%
Source Step = 91.1683%
Source Step = 91.2442%
Source Step = 91.3201%
Source Step = 91.3961%
Source Step = 91.472%
Source Step = 91.5479%
Source Step = 91.6238%
Source Step = 91.6998%
Source Step = 91.7757%
Source Step = 91.8516%
Source Step = 91.9276%
Source Step = 92.0035%
Starting source stepping with srcstepmethod=1
Source Step = 3.0303%
Source Step = 33.3333%
Source Step = 63.6364%
Source Step = 93.9394%
Source Step = 99.7576%
Source Step = 99.5682%
Source Step = 100%
Source Step = 100%
Source stepping succeeded in finding the operating point.


Date: Wed Aug 26 17:23:02 2020
Total elapsed time: 7.167 seconds.

tnom = 27
temp = 27
method = modified trap
totiter = 419742
traniter = 400834
tranpoints = 91722
accept = 79707
rejected = 12015
matrix size = 166
fillins = 332
solver = Normal
Thread vector: 9.5/5.7[4] 3.2/2.1[4] 2.3/1.5[4] 0.5/0.6[1]  2592/500
Matrix Compiler1: 32.70 KB object code size  4.8/2.4/[1.6]
Matrix Compiler2: 19.80 KB object code size  1.4/2.0/[0.9]

