Circuit: * C:\work\E344\E344\Ass2\LTSpice\test2.asc

WARNING: Less than two connections to node -5V.  This node is used by V2.
Early termination of direct N-R iteration.
Direct Newton iteration failed to find .op point.  (Use ".option noopiter" to skip.)
Starting Gmin stepping
Gmin = 10
vernier = 0.5
vernier = 0.25
vernier = 0.125
Gmin = 5.5165
vernier = 0.0625
vernier = 0.03125
vernier = 0.015625
vernier = 0.0078125
Gmin = 5.49501
vernier = 0.00390625
vernier = 0.00195313
vernier = 0.000976563
vernier = 0.000488281
Gmin = 5.50104
Gmin = 0
Gmin stepping succeeded in finding the operating point.


Date: Wed Sep 23 09:22:18 2020
Total elapsed time: 0.462 seconds.

tnom = 27
temp = 27
method = modified trap
totiter = 22204
traniter = 20768
tranpoints = 10090
accept = 10053
rejected = 37
matrix size = 84
fillins = 241
solver = Normal
Thread vector: 4.0/3.7[2] 1.7/1.7[1] 1.7/1.1[2] 0.2/0.6[1]  2592/500
Matrix Compiler1: 17.37 KB object code size  2.3/1.0/[0.9]
Matrix Compiler2: 10.93 KB object code size  1.2/1.1/[0.6]

