Circuit: * C:\work\E344\E344\Ass2\LTSpice\www.asc

Early termination of direct N-R iteration.
Direct Newton iteration failed to find .op point.  (Use ".option noopiter" to skip.)
Starting Gmin stepping
Gmin = 10
vernier = 0.5
vernier = 0.25
vernier = 0.125
Gmin = 6.68666
vernier = 0.0625
vernier = 0.03125
vernier = 0.015625
vernier = 0.0078125
Gmin = 6.72377
vernier = 0.00390625
vernier = 0.00195313
vernier = 0.000976563
vernier = 0.000488281
Gmin = 6.72131
Gmin = 0
Gmin stepping failed

Starting source stepping with srcstepmethod=0
Source Step = 3.0303%
vernier = 0.25
Source Step = 6.25%
vernier = 0.015625
Source Step = 6.08428%
Starting source stepping with srcstepmethod=1
Source Step = 3.0303%
vernier = 0.25
Source Step = 3.98911%
vernier = 0.000976563
Source stepping failed

Pseudo Transient succeeded in finding the operating point at 46.4898 s.
Heightened Def Con from 0.0465 to 0.0465
Heightened Def Con from 1.25375 to 1.25375
Heightened Def Con from 1.25388 to 1.25388
Heightened Def Con from 1.65862 to 1.65862
Heightened Def Con from 2.0505 to 2.0505
Heightened Def Con from 2.05102 to 2.05102
Heightened Def Con from 2.05116 to 2.05116
Heightened Def Con from 2.4563 to 2.4563
Heightened Def Con from 2.8535 to 2.8535
Heightened Def Con from 2.85402 to 2.85402
Heightened Def Con from 3.2563 to 3.2563
Heightened Def Con from 3.65548 to 3.65548
Heightened Def Con from 4.05495 to 4.05495
Heightened Def Con from 4.05521 to 4.05521
Heightened Def Con from 4.8575 to 4.8575
Heightened Def Con from 5.2569 to 5.2569
Heightened Def Con from 5.25703 to 5.25703
Heightened Def Con from 5.6535 to 5.6535
Heightened Def Con from 5.65402 to 5.65402
Heightened Def Con from 6.8555 to 6.8555
Heightened Def Con from 7.2555 to 7.2555
Heightened Def Con from 7.25576 to 7.25576
Heightened Def Con from 7.6535 to 7.6535
Heightened Def Con from 7.65402 to 7.65402
Heightened Def Con from 8.05942 to 8.05942
Heightened Def Con from 8.45509 to 8.45509
Heightened Def Con from 8.45536 to 8.45536
Heightened Def Con from 8.85462 to 8.85462
Heightened Def Con from 9.25762 to 9.25762
Heightened Def Con from 9.65495 to 9.65495
Heightened Def Con from 10.0537 to 10.0537
Heightened Def Con from 10.454 to 10.454
Heightened Def Con from 10.8535 to 10.8535
Heightened Def Con from 10.8538 to 10.8538
Heightened Def Con from 11.6567 to 11.6567
Heightened Def Con from 11.657 to 11.657
Heightened Def Con from 11.6571 to 11.6571
Heightened Def Con from 12.0567 to 12.0567
Heightened Def Con from 12.0572 to 12.0572
Heightened Def Con from 12.4563 to 12.4563
Heightened Def Con from 12.4566 to 12.4566
Heightened Def Con from 13.2581 to 13.2581
Heightened Def Con from 13.2582 to 13.2582
Heightened Def Con from 13.6551 to 13.6551
Heightened Def Con from 13.6552 to 13.6552
Heightened Def Con from 14.0505 to 14.0505
Heightened Def Con from 14.051 to 14.051
Heightened Def Con from 14.4535 to 14.4535
Heightened Def Con from 14.454 to 14.454
Heightened Def Con from 14.4542 to 14.4542
Heightened Def Con from 14.8507 to 14.8508
Heightened Def Con from 14.8509 to 14.8509
Heightened Def Con from 15.2527 to 15.2527
Heightened Def Con from 15.2532 to 15.2532
Heightened Def Con from 15.2534 to 15.2534
Heightened Def Con from 15.6523 to 15.6523
Heightened Def Con from 15.6526 to 15.6526
Heightened Def Con from 16.0535 to 16.0535
Heightened Def Con from 16.0538 to 16.0538
Heightened Def Con from 16.0539 to 16.0539
Heightened Def Con from 16.4523 to 16.4523
Heightened Def Con from 16.8587 to 16.8587
Heightened Def Con from 17.2563 to 17.2563
Heightened Def Con from 17.6535 to 17.6535
Heightened Def Con from 17.6538 to 17.6538
Heightened Def Con from 17.6539 to 17.6539
Heightened Def Con from 18.0563 to 18.0563
Heightened Def Con from 18.4563 to 18.4563
Heightened Def Con from 18.4564 to 18.4564
Heightened Def Con from 18.8531 to 18.8531
Heightened Def Con from 18.8534 to 18.8534
Heightened Def Con from 19.2563 to 19.2563
Heightened Def Con from 19.6515 to 19.6515
Heightened Def Con from 19.6516 to 19.6516
Heightened Def Con from 20.4561 to 20.4561
Heightened Def Con from 20.8555 to 20.8555
Heightened Def Con from 20.8558 to 20.8558
Heightened Def Con from 21.2567 to 21.2567
Heightened Def Con from 21.2572 to 21.2572
Heightened Def Con from 21.6555 to 21.6555
Heightened Def Con from 21.6558 to 21.6558
Heightened Def Con from 22.8537 to 22.8537
Heightened Def Con from 23.2523 to 23.2523
Heightened Def Con from 23.6551 to 23.6551
Heightened Def Con from 23.6553 to 23.6553
Heightened Def Con from 24.0541 to 24.0541
Heightened Def Con from 24.0543 to 24.0543
Heightened Def Con from 24.4515 to 24.4515
Heightened Def Con from 24.8567 to 24.8567
Heightened Def Con from 24.8572 to 24.8572
Heightened Def Con from 25.2585 to 25.2585
Heightened Def Con from 25.259 to 25.259
Heightened Def Con from 25.6555 to 25.6555
Heightened Def Con from 26.0535 to 26.0535
Heightened Def Con from 26.4555 to 26.4555
Heightened Def Con from 26.4558 to 26.4558
Heightened Def Con from 26.8551 to 26.8551
Heightened Def Con from 26.8552 to 26.8552
Heightened Def Con from 27.2535 to 27.2535
Heightened Def Con from 27.2538 to 27.2538
Heightened Def Con from 28.4563 to 28.4563
Heightened Def Con from 28.8581 to 28.8581
Heightened Def Con from 28.8584 to 28.8584
Heightened Def Con from 29.2603 to 29.2603
Heightened Def Con from 29.6529 to 29.6529

Date: Sun Aug 30 18:20:42 2020
Total elapsed time: 18.857 seconds.

tnom = 27
temp = 27
method = modified trap
totiter = 233584
traniter = 205358
tranpoints = 76664
accept = 69612
rejected = 7553
matrix size = 611
fillins = 1733
solver = Normal
Thread vector: 42.4/16.9[16] 22.0/5.9[16] 20.1/8.6[16] 1.9/7.0[1]  2592/500
Matrix Compiler1: 181.34 KB object code size  38.7/16.4/[8.8]
Matrix Compiler2: 81.92 KB object code size  10.3/10.2/[3.5]

