Circuit: * C:\work\E344\E344\Ass2\LTSpice\www.asc

Early termination of direct N-R iteration.
Direct Newton iteration failed to find .op point.  (Use ".option noopiter" to skip.)
Starting Gmin stepping
Gmin = 10
vernier = 0.5
vernier = 0.25
vernier = 0.125
Gmin = 5.5165
vernier = 0.0625
vernier = 0.03125
vernier = 0.015625
vernier = 0.0078125
Gmin = 5.49501
vernier = 0.00390625
vernier = 0.00195313
vernier = 0.000976563
vernier = 0.000488281
Gmin = 5.50104
Gmin = 0
Gmin stepping failed

Starting source stepping with srcstepmethod=0
Source Step = 3.0303%
vernier = 0.25
Source Step = 7.57576%
Source Step = 15.1515%
Source Step = 22.7273%
Source Step = 28.9773%
vernier = 0.015625
Source Step = 28.8116%
Source Step = 28.8411%
Source Step = 28.8707%
Source Step = 28.9003%
Source Step = 28.9299%
vernier = 0.00146484
Source Step = 28.9625%
Source Step = 29.0069%
Source Step = 29.0513%
Source Step = 29.0956%
Source Step = 29.14%
vernier = 0.00219727
Source Step = 29.1866%
Source Step = 29.2532%
Source Step = 29.3198%
Source Step = 29.3864%
Source Step = 29.453%
Source Step = 29.5196%
vernier = 0.0032959
Source Step = 29.6194%
Source Step = 29.7193%
Source Step = 29.8192%
Source Step = 29.9191%
Source Step = 30.0189%
vernier = 0.00494385
Source Step = 30.1638%
Source Step = 30.3136%
Source Step = 30.4634%
Source Step = 30.6132%
Source Step = 30.763%
vernier = 0.00741577
Source Step = 30.9728%
Source Step = 31.1975%
Source Step = 31.4222%
Source Step = 31.6469%
Source Step = 31.8716%
vernier = 0.0111237
Source Step = 32.175%
Source Step = 32.5121%
Source Step = 32.8492%
Source Step = 33.1862%
Source Step = 33.5233%
vernier = 0.0166855
Source Step = 33.9615%
Source Step = 34.4672%
Source Step = 34.9728%
Source Step = 35.4784%
Source Step = 35.984%
vernier = 0.0250282
Source Step = 36.616%
Source Step = 37.3745%
Source Step = 38.1329%
Source Step = 38.8913%
Source Step = 39.6498%
vernier = 0.0375423
Source Step = 40.5599%
Source Step = 41.6975%
Source Step = 42.8352%
Source Step = 43.9728%
Source Step = 45.1105%
vernier = 0.0563135
Source Step = 46.4188%
Source Step = 48.1252%
Source Step = 49.8317%
Source Step = 51.5382%
Source Step = 53.2446%
vernier = 0.0844703
Source Step = 55.1218%
Source Step = 57.6815%
Source Step = 60.2412%
Source Step = 62.8009%
Source Step = 65.3606%
vernier = 0.126705
Source Step = 68.0483%
Source Step = 71.8878%
Source Step = 75.7274%
Source Step = 79.5669%
Source Step = 83.4065%
Source Step = 87.2461%
vernier = 0.190058
Source Step = 93.0054%
Source Step = 95.9031%
Source Step = 95.9931%
Source Step = 96.083%
Source Step = 96.173%
Source Step = 96.263%
Source Step = 96.353%
Source Step = 96.443%
Source Step = 96.533%
Source Step = 96.623%
Source Step = 96.713%
Source Step = 96.803%
Source Step = 96.893%
Source Step = 96.9829%
Source Step = 97.0729%
Source Step = 97.1629%
Source Step = 97.2529%
Source Step = 97.3429%
Source Step = 97.4329%
Source Step = 97.5229%
Source Step = 97.6129%
Source Step = 97.7029%
Source Step = 97.7928%
Source Step = 97.8828%
Source Step = 97.9728%
Starting source stepping with srcstepmethod=1
Source Step = 3.0303%
vernier = 0.25
Source Step = 1.08902%
vernier = 0.00390625
Source stepping failed

Pseudo transient terminated at 102.962 s, solution accepted ready or not!
Heightened Def Con from 0.6515 to 0.6515
Heightened Def Con from 0.651533 to 0.651533
Heightened Def Con from 1.6505 to 1.6505
Heightened Def Con from 2.6695 to 2.6695
Heightened Def Con from 2.67002 to 2.67002
Heightened Def Con from 3.6695 to 3.6695
Heightened Def Con from 3.66973 to 3.66973
Heightened Def Con from 5.6675 to 5.6675
Heightened Def Con from 6.6515 to 6.6515
Heightened Def Con from 7.6745 to 7.6745
Heightened Def Con from 7.67476 to 7.67476
Heightened Def Con from 9.6767 to 9.6767
Heightened Def Con from 9.67696 to 9.67696
Heightened Def Con from 10.6695 to 10.6695
Heightened Def Con from 10.67 to 10.67
Heightened Def Con from 10.6703 to 10.6703
Heightened Def Con from 11.6655 to 11.6655
Heightened Def Con from 11.666 to 11.666
Heightened Def Con from 12.6625 to 12.6625
Heightened Def Con from 12.6628 to 12.6628
Heightened Def Con from 13.6687 to 13.6687
Heightened Def Con from 13.669 to 13.669
Heightened Def Con from 13.669 to 13.669
Heightened Def Con from 14.6625 to 14.6625
Heightened Def Con from 14.663 to 14.663
Heightened Def Con from 14.6633 to 14.6633
Heightened Def Con from 15.6603 to 15.6603
Heightened Def Con from 16.6687 to 16.6687
Heightened Def Con from 16.669 to 16.669
Heightened Def Con from 16.6692 to 16.6692
Heightened Def Con from 17.6615 to 17.6615
Heightened Def Con from 17.6618 to 17.6618
Heightened Def Con from 17.6618 to 17.6618
Heightened Def Con from 18.6761 to 18.6761
Heightened Def Con from 19.6655 to 19.6655
Heightened Def Con from 19.666 to 19.666
Heightened Def Con from 20.6855 to 20.6855
Heightened Def Con from 21.6683 to 21.6683
Heightened Def Con from 21.6686 to 21.6686
Heightened Def Con from 22.3105 to 22.3105
Heightened Def Con from 22.6625 to 22.6625
Heightened Def Con from 22.6626 to 22.6626
Heightened Def Con from 23.6735 to 23.6735
Heightened Def Con from 24.6775 to 24.6775
Heightened Def Con from 24.6778 to 24.6778
Heightened Def Con from 25.6567 to 25.6567
Heightened Def Con from 25.657 to 25.657
Heightened Def Con from 26.6745 to 26.6745
Heightened Def Con from 27.6425 to 27.6425
Heightened Def Con from 27.6428 to 27.6428
Heightened Def Con from 28.6655 to 28.6655
Heightened Def Con from 28.6657 to 28.6657
Heightened Def Con from 29.6745 to 29.6745
Heightened Def Con from 29.6748 to 29.6748

Date: Sun Sep 20 15:52:20 2020
Total elapsed time: 36.943 seconds.

tnom = 27
temp = 27
method = modified trap
totiter = 187636
traniter = 144437
tranpoints = 61829
accept = 59160
rejected = 3257
matrix size = 293
fillins = 3021
solver = Normal
Thread vector: 17.6/11.0[6] 5.3/3.3[6] 14.4/6.6[6] 1.2/1.9[1]  2592/500
Matrix Compiler1: 671.03 KB object code size  86.7/33.0/[22.8]
Matrix Compiler2: 76.18 KB object code size  8.0/5.8/[2.6]

