Circuit: * C:\work\E344\E344\LTSpice\filters.asc

Direct Newton iteration failed to find .op point.  (Use ".option noopiter" to skip.)
Starting Gmin stepping
Gmin = 10
Gmin = 1.07374
Gmin = 0.115292
Gmin = 0.0123794
vernier = 0.5
vernier = 0.25
vernier = 0.125
Gmin = 0.00803423
vernier = 0.0625
vernier = 0.03125
vernier = 0.015625
vernier = 0.0078125
Gmin = 0.00812606
vernier = 0.00390625
vernier = 0.00520833
Gmin = 0.00806023
vernier = 0.00694444
vernier = 0.00925925
Gmin = 0.00791934
vernier = 0.0123457
Gmin = 0.00770268
vernier = 0.0164609
vernier = 0.0219478
Gmin = 0.0073525
vernier = 0.0292638
vernier = 0.0390184
Gmin = 0.00682741
vernier = 0.0520245
Gmin = 0.00607744
vernier = 0.0693659
vernier = 0.0924879
Gmin = 0.00500277
vernier = 0.123317
vernier = 0.164423
Gmin = 0.0036749
vernier = 0.21923
Gmin = 0.00227105
vernier = 0.292307
vernier = 0.389743
Gmin = 0.00102548
vernier = 0.194871
vernier = 0.0974357
vernier = 0.0487178
vernier = 0.0243589
vernier = 0.0121795
vernier = 0.00608973
vernier = 0.00304487
vernier = 0.00152243
vernier = 0.000761216
vernier = 0.000570912
Gmin = 0.00112539
vernier = 0.000428184
Gmin = 0
Gmin stepping failed

Starting source stepping with srcstepmethod=0
Source Step = 3.0303%
vernier = 0.25
Source Step = 1.70455%
Source Step = 3.59848%
Source Step = 5.49242%
Source Step = 7.38636%
Source Step = 9.2803%
vernier = 0.09375
Source Step = 11.9318%
Source Step = 14.7727%
Source Step = 17.6136%
Source Step = 20.4545%
Source Step = 23.2955%
vernier = 0.140625
Source Step = 27.1307%
Source Step = 31.392%
Source Step = 35.6534%
Source Step = 39.9148%
Source Step = 44.1761%
vernier = 0.210938
Source Step = 49.7159%
Source Step = 56.108%
Source Step = 62.5%
Source Step = 68.892%
Source Step = 75.2841%
vernier = 0.316406
Source Step = 83.2741%
Source Step = 92.8622%
Source stepping succeeded in finding the operating point.


Date: Thu Aug 13 19:49:42 2020
Total elapsed time: 3.658 seconds.

tnom = 27
temp = 27
method = modified trap
totiter = 462882
traniter = 459205
tranpoints = 82760
accept = 62237
rejected = 20523
matrix size = 138
fillins = 243
solver = Normal
Thread vector: 6.1/4.7[3] 1.2/0.7[3] 1.4/1.1[3] 0.3/0.5[1]  2592/500
Matrix Compiler1: 21.46 KB object code size  3.1/1.7/[0.9]
Matrix Compiler2: 15.51 KB object code size  1.0/1.4/[0.6]

