Circuit: * C:\work\E344\E344\LTSpice\voltageRegulators.asc

Questionable use of curly braces in "b§e_abmgate yint 0 v={if(v(a)>{{vthresh}}&v(b)>{{vthresh}},{{vdd}},{{vss}})}"
    Error: undefined symbol in: "if([v](a)>((vthresh))&v(b)>((vthresh)),((vdd)),((vss)))"
Questionable use of curly braces in "b§e_abmgate yint 0 v={if(v(a)>{{vthresh}}|v(b)>{{vthresh}}|v(c)>{{vthresh}},{{vdd}},{{vss}})}"
    Error: undefined symbol in: "if([v](a)>((vthresh))|v(b)>((vthresh))|v(c)>((vthresh)),((vdd)),((vss)))"
Questionable use of curly braces in "b§e_abmgate yint 0 v={if(v(a)>{{vthresh}},{{vdd}},{{vss}})}"
    Error: undefined symbol in: "if([v](a)>((vthresh)),((vdd)),((vss)))"
Direct Newton iteration failed to find .op point.  (Use ".option noopiter" to skip.)
Starting Gmin stepping
Gmin = 10
Gmin = 1.07374
Gmin = 0.115292
Gmin = 0.0123794
Gmin = 0.00132923
Gmin = 0.000142725
Gmin = 1.5325e-005
vernier = 0.5
vernier = 0.25
Gmin = 7.24327e-006
vernier = 0.333333
vernier = 0.444444
Gmin = 2.9399e-006
vernier = 0.592592
vernier = 0.790123
Gmin = 7.24864e-007
vernier = 1
Gmin = 9.23953e-008
Gmin = 9.92087e-009
Gmin = 1.06525e-009
Gmin = 1.1438e-010
Gmin = 1.22814e-011
Gmin = 1.31871e-012
Gmin = 1.41595e-013
Gmin = 0
Gmin stepping succeeded in finding the operating point.

Ignoring empty pin current: Ix(lm2595:fb)
Ignoring empty pin current: Ix(lm2595:fb)

Date: Sun Aug 16 09:31:41 2020
Total elapsed time: 8.506 seconds.

tnom = 27
temp = 27
method = modified trap
totiter = 792487
traniter = 791700
tranpoints = 246816
accept = 185202
rejected = 61614
matrix size = 130
fillins = 81
solver = Normal
Thread vector: 18.4/7.2[2] 3.3/2.2[2] 2.9/1.9[2] 0.3/0.7[1]  2592/500
Matrix Compiler1: 9.95 KB object code size  1.5/0.9/[0.6]
Matrix Compiler2: 10.62 KB object code size  0.8/1.6/[0.6]

