Circuit: * C:\Als\Work\SUN\Classes\E-design\2020\LTSpice\Assignment3Release\Assignment3\E344_A3_heart.asc

A1: all pins shorted together -- ignoring.
WARNING: Less than two connections to node 9V.  This node is used by R_SENSE.
Direct Newton iteration failed to find .op point.  (Use ".option noopiter" to skip.)
Starting Gmin stepping
Gmin = 10
vernier = 0.5
vernier = 0.25
vernier = 0.125
Gmin = 4.81882
vernier = 0.0625
vernier = 0.03125
vernier = 0.015625
vernier = 0.0078125
Gmin = 4.77215
vernier = 0.00390625
vernier = 0.00195313
vernier = 0.000976563
vernier = 0.000488281
Gmin = 4.77505
Gmin = 0
Gmin stepping failed

Starting source stepping with srcstepmethod=0
Source Step = 3.0303%
Source Step = 6.07244%
Source Step = 6.10204%
Source Step = 6.13163%
Source Step = 6.16122%
Source Step = 6.19081%
Source Step = 6.22041%
vernier = 0.00146484
Source Step = 6.26332%
Source Step = 6.30771%
Source Step = 6.3521%
Source Step = 6.39648%
Source Step = 6.44087%
vernier = 0.00219727
Source Step = 6.50302%
Source Step = 6.5696%
Source Step = 6.63619%
Source Step = 6.70277%
Source Step = 6.76935%
vernier = 0.0032959
Source Step = 6.85924%
Source Step = 6.95912%
Source Step = 7.05899%
Source Step = 7.15887%
Source Step = 7.25874%
vernier = 0.00494385
Source Step = 7.38858%
Source Step = 7.5384%
Source Step = 7.68821%
Source Step = 7.83802%
Source Step = 7.98784%
vernier = 0.00741577
Source Step = 8.1751%
Source Step = 8.39982%
Source Step = 8.62455%
Source Step = 8.84927%
Source Step = 9.07399%
vernier = 0.0111237
Source Step = 9.34365%
Source Step = 9.68073%
Source Step = 10.0178%
Source Step = 10.3549%
Source Step = 10.692%
vernier = 0.0166855
Source Step = 11.0796%
Source Step = 11.5852%
Source Step = 12.0909%
Source Step = 12.5965%
Source Step = 13.1021%
vernier = 0.0250282
Source Step = 13.6583%
Source Step = 14.4167%
Source Step = 15.1751%
Source Step = 15.9336%
Source Step = 16.692%
vernier = 0.0375423
Source Step = 17.4884%
Source Step = 18.626%
Source Step = 19.7637%
Source Step = 20.9013%
Source Step = 22.0389%
Source Step = 23.1766%
vernier = 0.0563135
Source Step = 24.8831%
Source Step = 26.5895%
Source Step = 28.296%
Source Step = 30.0025%
Source Step = 31.7089%
vernier = 0.0844703
Source Step = 34.1833%
Source Step = 36.743%
vernier = 0.0211176
Source Step = 37.127%
Source Step = 37.7669%
Source Step = 38.4068%
Source Step = 39.0468%
Source Step = 39.6867%
vernier = 0.0316764
Source Step = 40.6146%
Source Step = 41.5745%
Source Step = 42.5344%
Source Step = 43.4943%
Source Step = 44.4541%
vernier = 0.0475145
Source Step = 45.798%
Source Step = 47.2378%
Source Step = 48.6777%
Source Step = 50.1175%
Source Step = 51.5573%
vernier = 0.0712718
Source Step = 53.5011%
Source Step = 55.6609%
Source Step = 57.8206%
Source Step = 59.9804%
Source Step = 62.1401%
vernier = 0.106908
Source Step = 64.9478%
Source Step = 68.1874%
Source Step = 71.427%
Source Step = 74.6667%
Source Step = 77.9063%
vernier = 0.160362
Source Step = 81.9558%
Source Step = 86.8153%
Source Step = 91.6747%
Source Step = 96.5341%
Source Step = 100%
vernier = 0.240542
Source stepping succeeded in finding the operating point.

