Circuit: * C:\work\E344\E344\Ass3\Assignment3\E344_A3_heart.asc

Early termination of direct N-R iteration.
Direct Newton iteration failed to find .op point.  (Use ".option noopiter" to skip.)
Starting Gmin stepping
Gmin = 10
vernier = 0.5
vernier = 0.25
vernier = 0.125
Gmin = 5.49741
vernier = 0.0625
vernier = 0.03125
vernier = 0.015625
vernier = 0.0078125
Gmin = 5.51716
vernier = 0.00390625
vernier = 0.00195313
vernier = 0.000976563
vernier = 0.000488281
Gmin = 5.50104
Gmin = 0
Gmin stepping failed

Starting source stepping with srcstepmethod=0
Source Step = 3.0303%
vernier = 0.25
Source Step = 7.57576%
Source Step = 15.1515%
Source Step = 22.7273%
Source Step = 30.303%
vernier = 0.0625
Source Step = 29.6106%
Source Step = 29.6402%
Source Step = 29.6697%
Source Step = 29.6993%
Source Step = 29.7289%
Source Step = 29.7585%
vernier = 0.00146484
Source Step = 29.7985%
Source Step = 29.8429%
Source Step = 29.8873%
Source Step = 29.9316%
Source Step = 29.976%
vernier = 0.00219727
Source Step = 30.0337%
Source Step = 30.1003%
Source Step = 30.1669%
Source Step = 30.2335%
Source Step = 30.3001%
vernier = 0.0032959
Source Step = 30.3833%
Source Step = 30.4832%
Source Step = 30.5831%
Source Step = 30.6829%
Source Step = 30.7828%
vernier = 0.00494385
Source Step = 30.9027%
Source Step = 31.0525%
Source Step = 31.2023%
Source Step = 31.3521%
Source Step = 31.5019%
vernier = 0.00741577
Source Step = 31.6742%
Source Step = 31.8989%
Source Step = 32.1236%
Source Step = 32.3484%
Source Step = 32.5731%
vernier = 0.0111237
Source Step = 32.8203%
Source Step = 33.1573%
Source Step = 33.4944%
Source Step = 33.8315%
Source Step = 34.1686%
vernier = 0.0166855
Source Step = 34.5225%
Source Step = 35.0281%
Source Step = 35.5338%
Source Step = 36.0394%
Source Step = 36.545%
Source Step = 37.0506%
vernier = 0.0250282
Source Step = 37.8091%
Source Step = 38.5675%
Source Step = 39.3259%
Source Step = 40.0844%
Source Step = 40.8428%
vernier = 0.0375423
Source Step = 41.9425%
Source Step = 43.0802%
Source Step = 44.2178%
Source Step = 45.3555%
Source Step = 46.4931%
vernier = 0.0563135
Source Step = 48.0858%
Source Step = 49.7923%
Source Step = 51.4987%
Source Step = 53.2052%
Source Step = 54.9117%
vernier = 0.0844703
Source Step = 57.2154%
Source Step = 59.7751%
Source Step = 62.3348%
Source Step = 64.8945%
Source Step = 67.4542%
vernier = 0.126705
Source Step = 70.7819%
Source Step = 74.6214%
Source Step = 78.461%
Source Step = 82.3005%
Source Step = 86.1401%
vernier = 0.190058
Source Step = 90.9395%
vernier = 0.0475145
Source Step = 90.5436%
Starting source stepping with srcstepmethod=1
Source Step = 3.0303%
vernier = 0.25
Source Step = 2.36742%
vernier = 0.00390625
Source Step = 2.37334%
Source stepping failed

Pseudo Transient succeeded in finding the operating point at 2.4689 s.
Heightened Def Con from 0.480188 to 0.480188
Heightened Def Con from 0.480253 to 0.480253

Date: Mon Oct 05 12:04:47 2020
Total elapsed time: 10.733 seconds.

tnom = 27
temp = 27
method = modified trap
totiter = 54926
traniter = 19969
tranpoints = 9432
accept = 9261
rejected = 926
matrix size = 265
fillins = 2456
solver = Normal
Thread vector: 16.3/11.7[6] 6.9/3.8[6] 8.0/4.7[6] 1.0/1.6[1]  2592/500
Matrix Compiler1: 511.88 KB object code size  71.7/24.3/[18.7]
Matrix Compiler2: 64.98 KB object code size  6.1/7.8/[2.0]

