Circuit: * C:\Als\Work\SUN\Classes\E-design\2020\LTSpice\Assignment3Release\Assignment3\E344_A3_temp.asc

V1: Removing PWL point (0.001,1.32)
WARNING: Less than two connections to node 9V.  This node is used by R_SENSE.
Direct Newton iteration failed to find .op point.  (Use ".option noopiter" to skip.)
Starting Gmin stepping
Increasing initial diagonal Gmin to 100
Gmin = 100
vernier = 0.5
vernier = 0.25
Gmin = 34.2672
vernier = 0.125
vernier = 0.0625
vernier = 0.03125
vernier = 0.015625
Gmin = 33.0995
vernier = 0.0078125
vernier = 0.00390625
vernier = 0.00195313
Gmin = 32.9705
vernier = 0.000976563
vernier = 0.000488281
Gmin = 0
Gmin stepping failed

Starting source stepping with srcstepmethod=0
Source Step = 3.0303%
Source Step = 6.07244%
Source Step = 6.10204%
Source Step = 6.13163%
Source Step = 6.16122%
Source Step = 6.19081%
vernier = 0.00146484
Source Step = 6.22337%
Source Step = 6.26776%
Source Step = 6.31214%
Source Step = 6.35653%
Source Step = 6.40092%
vernier = 0.00219727
Source Step = 6.44753%
Source Step = 6.51412%
Source Step = 6.5807%
Source Step = 6.64728%
Source Step = 6.71387%
Source Step = 6.78045%
vernier = 0.0032959
Source Step = 6.88033%
Source Step = 6.9802%
Source Step = 7.08008%
Source Step = 7.17995%
Source Step = 7.27983%
vernier = 0.00494385
Source Step = 7.42465%
Source Step = 7.57446%
Source Step = 7.72428%
Source Step = 7.87409%
Source Step = 8.0239%
vernier = 0.00741577
Source Step = 8.23364%
Source Step = 8.45836%
Source Step = 8.68308%
Source Step = 8.9078%
Source Step = 9.13252%
vernier = 0.0111237
Source Step = 9.4359%
Source Step = 9.77298%
Source Step = 10.1101%
Source Step = 10.4471%
Source Step = 10.7842%
vernier = 0.0166855
Source Step = 11.2224%
Source Step = 11.728%
Source Step = 12.2337%
Source Step = 12.7393%
Source Step = 13.2449%
vernier = 0.0250282
Source Step = 13.8769%
Source Step = 14.6354%
Source Step = 15.3938%
Source Step = 16.1522%
Source Step = 16.9107%
vernier = 0.0375423
Source Step = 17.8208%
Source Step = 18.9584%
Source Step = 20.0961%
Source Step = 21.2337%
Source Step = 22.1723%
vernier = 0.0023464
Source Step = 22.2149%
Source Step = 22.286%
Source Step = 22.3571%
Source Step = 22.4282%
Source Step = 22.4993%
vernier = 0.00351959
Source Step = 22.5847%
Source Step = 22.6913%
Source Step = 22.798%
Source Step = 22.9046%
Source Step = 23.0113%
vernier = 0.00527939
Source Step = 23.1339%
Source Step = 23.2939%
Source Step = 23.4539%
Source Step = 23.6139%
Source Step = 23.7739%
vernier = 0.00791909
Source Step = 23.9498%
Source Step = 24.1898%
Source Step = 24.4298%
Source Step = 24.6698%
Source Step = 24.9097%
vernier = 0.0118786
Source Step = 25.1617%
Source Step = 25.5217%
Source Step = 25.8816%
Source Step = 26.2416%
Source Step = 26.6015%
Source Step = 26.9615%
vernier = 0.0178179
Source Step = 27.5014%
Source Step = 28.0414%
Source Step = 28.5813%
Source Step = 29.1213%
Source Step = 29.6612%
vernier = 0.0267269
Source Step = 30.4441%
Source Step = 31.254%
Source Step = 32.0639%
Source Step = 32.8738%
Source Step = 33.6837%
vernier = 0.0400904
Source Step = 34.8176%
Source Step = 36.0325%
Source Step = 37.2473%
Source Step = 38.4622%
Source Step = 39.677%
vernier = 0.0601356
Source Step = 41.3171%
Source Step = 43.1394%
Source Step = 44.9617%
Source Step = 46.784%
Source Step = 48.6063%
vernier = 0.0902034
Source Step = 50.9752%
Source Step = 53.7087%
Source Step = 56.4421%
Source Step = 59.1755%
Source Step = 61.909%
vernier = 0.135305
Source Step = 65.3258%
Source Step = 69.4259%
Source Step = 73.5261%
Source Step = 77.6262%
Source Step = 81.7264%
vernier = 0.202958
Source Step = 86.6466%
Source Step = 92.7968%
Source Step = 98.947%
Source Step = 100%
Source Step = 99.2306%
Source Step = 99.4036%
Source Step = 99.4997%
Source Step = 99.5958%
Source Step = 99.6919%
Source Step = 99.788%
Source Step = 99.8841%
Source Step = 99.9802%
Source Step = 100%
Source stepping succeeded in finding the operating point.


Date: Sat Sep 19 06:44:07 2020
Total elapsed time: 7.306 seconds.

tnom = 27
temp = 27
method = modified trap
totiter = 19437
traniter = 4210
tranpoints = 2048
accept = 2042
rejected = 6
matrix size = 184
fillins = 450
solver = Normal
Thread vector: 29.8/20.7[4] 9.4/5.0[4] 13.0/6.8[4] 1.7/3.6[1]  2592/500
Matrix Compiler1: 40.28 KB object code size  14.9/8.8/[3.4]
Matrix Compiler2: 23.42 KB object code size  12.9/13.7/[2.6]

