Circuit: * C:\work\E344\E344\Ass3\Assignment3\E344_A3_temp.asc

Early termination of direct N-R iteration.
Direct Newton iteration failed to find .op point.  (Use ".option noopiter" to skip.)
Starting Gmin stepping
Gmin = 10
vernier = 0.5
vernier = 0.25
vernier = 0.125
Gmin = 6.68666
vernier = 0.0625
vernier = 0.03125
vernier = 0.015625
vernier = 0.0078125
Gmin = 6.72377
vernier = 0.00390625
vernier = 0.00195313
vernier = 0.000976563
vernier = 0.000488281
Gmin = 6.72131
Gmin = 0
Gmin stepping failed

Starting source stepping with srcstepmethod=0
Source Step = 3.0303%
vernier = 0.25
Source Step = 1.70455%
Source Step = 3.59848%
Source Step = 5.49242%
Source Step = 7.38636%
Source Step = 9.2803%
vernier = 0.09375
Source Step = 11.9318%
Source Step = 14.7727%
Source Step = 17.6136%
Source Step = 20.4545%
Source Step = 21.3246%
Source Step = 21.369%
Source Step = 21.4134%
Source Step = 21.4577%
Source Step = 21.5021%
vernier = 0.00219727
Source Step = 21.551%
Source Step = 21.6175%
Source Step = 21.6841%
Source Step = 21.7507%
Source Step = 21.8173%
vernier = 0.0032959
Source Step = 21.8872%
Source Step = 21.9871%
Source Step = 22.087%
Source Step = 22.1868%
Source Step = 22.2867%
Source Step = 22.3866%
vernier = 0.00494385
Source Step = 22.5364%
Source Step = 22.6862%
Source Step = 22.836%
Source Step = 22.9858%
Source Step = 23.1357%
vernier = 0.00741577
Source Step = 23.3529%
Source Step = 23.5776%
Source Step = 23.8023%
Source Step = 24.027%
Source Step = 24.2518%
vernier = 0.0111237
Source Step = 24.5664%
Source Step = 24.9035%
Source Step = 25.2405%
Source Step = 25.5776%
Source Step = 25.9147%
vernier = 0.0166855
Source Step = 26.3698%
Source Step = 26.8754%
Source Step = 27.381%
Source Step = 27.8866%
Source Step = 27.9877%
Source Step = 28.0193%
Source Step = 28.0509%
Source Step = 28.0825%
Source Step = 28.1141%
vernier = 0.00156426
Source Step = 28.1505%
Source Step = 28.1979%
Source Step = 28.2453%
Source Step = 28.2927%
Source Step = 28.3401%
vernier = 0.0023464
Source Step = 28.3922%
Source Step = 28.4633%
Source Step = 28.5344%
Source Step = 28.6055%
Source Step = 28.6766%
Source Step = 28.7478%
Source Step = 28.8189%
Source Step = 28.89%
Source Step = 28.9611%
Source Step = 29.0322%
Source Step = 29.1033%
vernier = 0.00351959
Source Step = 29.2028%
Source Step = 29.3095%
Source Step = 29.4161%
Source Step = 29.5228%
Source Step = 29.6294%
vernier = 0.00527939
Source Step = 29.7734%
Source Step = 29.9334%
Source Step = 30.0934%
Source Step = 30.2534%
Source Step = 30.4133%
vernier = 0.00791909
Source Step = 30.6213%
Source Step = 30.8613%
Source Step = 31.1013%
Source Step = 31.3412%
Source Step = 31.5812%
vernier = 0.0118786
Source Step = 31.8812%
Source Step = 32.2411%
Source Step = 32.6011%
Source Step = 32.961%
Source Step = 33.321%
vernier = 0.0178179
Source Step = 33.753%
Source Step = 34.2929%
Source Step = 34.8328%
Source Step = 35.3728%
Source Step = 35.9127%
vernier = 0.0267269
Source Step = 36.5336%
Source Step = 37.3435%
Source Step = 38.1534%
Source Step = 38.9634%
Source Step = 39.7733%
vernier = 0.0400904
Source Step = 40.6642%
Source Step = 41.879%
Source Step = 43.0939%
Source Step = 44.3087%
Source Step = 45.5236%
vernier = 0.0601356
Source Step = 46.7992%
Source Step = 48.6215%
Source Step = 50.4438%
Source Step = 52.2661%
Source Step = 54.0884%
Source Step = 55.9107%
vernier = 0.0902034
Source Step = 58.6441%
Source Step = 61.3775%
Source Step = 64.111%
Source Step = 66.8444%
Source Step = 69.5778%
vernier = 0.135305
Source Step = 73.5413%
Source Step = 77.6415%
Source Step = 81.7416%
Source Step = 85.8418%
Source Step = 89.9419%
vernier = 0.202958
Source Step = 95.6821%
Source Step = 96.3548%
Source Step = 96.4509%
Source Step = 96.547%
Source Step = 96.6431%
Source Step = 96.7392%
Source Step = 96.8353%
Source Step = 96.9314%
Source Step = 97.0275%
Starting source stepping with srcstepmethod=1
Source Step = 3.0303%
Source Step = 23.4848%
vernier = 0.0625
Source Step = 23.5795%
Source Step = 23.6476%
Source stepping failed

Pseudo Transient succeeded in finding the operating point at 673.935 ms.

Date: Sun Oct 04 10:04:49 2020
Total elapsed time: 11.046 seconds.

tnom = 27
temp = 27
method = modified trap
totiter = 43747
traniter = 9970
tranpoints = 2455
accept = 2329
rejected = 619
matrix size = 446
fillins = 1714
solver = Normal
Thread vector: 36.0/13.2[11] 15.5/4.7[11] 8.7/2.6[11] 1.3/90.0[1]  2592/500
Matrix Compiler1: 221.96 KB object code size  43.4/16.7/[11.0]
Matrix Compiler2: 67.27 KB object code size  7.0/6.8/[2.7]

