Circuit: * C:\work\E344\E344\Ass3\E344_A3_heart.asc

Early termination of direct N-R iteration.
Direct Newton iteration failed to find .op point.  (Use ".option noopiter" to skip.)
Starting Gmin stepping
Gmin = 10
vernier = 0.5
vernier = 0.25
vernier = 0.125
Gmin = 5.5165
vernier = 0.0625
vernier = 0.03125
vernier = 0.015625
vernier = 0.0078125
Gmin = 5.49501
vernier = 0.00390625
vernier = 0.00195313
vernier = 0.000976563
vernier = 0.000488281
Gmin = 5.50104
Gmin = 0
Gmin stepping failed

Starting source stepping with srcstepmethod=0
Source Step = 3.0303%
vernier = 0.25
Source Step = 7.57576%
Source Step = 15.1515%
Source Step = 22.7273%
Source Step = 30.303%
vernier = 0.0625
Source Step = 29.6106%
Source Step = 29.6402%
Source Step = 29.6697%
Source Step = 29.6993%
Source Step = 29.7289%
Source Step = 29.7585%
vernier = 0.00146484
Source Step = 29.794%
Source Step = 29.8384%
Source Step = 29.8828%
Source Step = 29.9272%
Source Step = 29.9716%
vernier = 0.00219727
Source Step = 30.0226%
Source Step = 30.0892%
Source Step = 30.1558%
Source Step = 30.2224%
Source Step = 30.289%
vernier = 0.0032959
Source Step = 30.3622%
Source Step = 30.4621%
Source Step = 30.562%
Source Step = 30.6618%
Source Step = 30.7617%
vernier = 0.00494385
Source Step = 30.8666%
Source Step = 31.0164%
Source Step = 31.1662%
Source Step = 31.316%
Source Step = 31.4658%
Source Step = 31.6157%
vernier = 0.00741577
Source Step = 31.8404%
Source Step = 32.0651%
Source Step = 32.2898%
Source Step = 32.5145%
Source Step = 32.7393%
vernier = 0.0111237
Source Step = 33.0651%
Source Step = 33.4022%
Source Step = 33.7393%
Source Step = 34.0763%
Source Step = 34.4134%
vernier = 0.0166855
Source Step = 34.8853%
Source Step = 35.391%
Source Step = 35.8966%
Source Step = 36.4022%
Source Step = 36.9078%
vernier = 0.0250282
Source Step = 37.5904%
Source Step = 38.3488%
Source Step = 39.1073%
Source Step = 39.8657%
Source Step = 40.6241%
vernier = 0.0375423
Source Step = 41.6101%
Source Step = 42.7477%
Source Step = 43.8854%
Source Step = 45.023%
Source Step = 46.1607%
vernier = 0.0563135
Source Step = 47.5827%
Source Step = 49.2892%
Source Step = 50.9957%
Source Step = 52.7021%
Source Step = 54.4086%
vernier = 0.0844703
Source Step = 56.4564%
Source Step = 59.0161%
Source Step = 61.5758%
Source Step = 64.1355%
Source Step = 66.6952%
vernier = 0.126705
Source Step = 69.6389%
Source Step = 73.4784%
Source Step = 77.318%
Source Step = 81.1575%
Source Step = 84.9971%
vernier = 0.190058
Source Step = 89.2206%
Source Step = 92.1183%
Source Step = 92.2083%
Source Step = 92.2983%
Source Step = 92.3882%
Source Step = 92.4782%
Starting source stepping with srcstepmethod=1
Source Step = 3.0303%
vernier = 0.25
Source Step = 2.22538%
Source stepping failed

Pseudo Transient succeeded in finding the operating point at 11.1298 s.
Heightened Def Con from 0.7277 to 0.7277
Heightened Def Con from 1.1983 to 1.1983
Heightened Def Con from 1.19856 to 1.19856
Heightened Def Con from 1.80341 to 1.80341
Heightened Def Con from 1.80371 to 1.80371
Heightened Def Con from 2.11584 to 2.11584
Heightened Def Con from 2.40784 to 2.40784
Heightened Def Con from 3.00861 to 3.00861
Heightened Def Con from 3.61308 to 3.61308
Heightened Def Con from 4.22309 to 4.22309
Heightened Def Con from 4.82919 to 4.82919
Heightened Def Con from 5.442 to 5.442

Date: Sun Oct 18 20:29:50 2020
Total elapsed time: 19.403 seconds.

tnom = 27
temp = 27
method = modified trap
totiter = 105055
traniter = 66074
tranpoints = 29739
accept = 28790
rejected = 1563
matrix size = 265
fillins = 2579
solver = Normal
Thread vector: 19.5/13.6[6] 9.3/4.9[6] 31.9/19.2[6] 3.1/37.1[1]  2592/500
Matrix Compiler1: 553.55 KB object code size  85.9/25.6/[19.6]
Matrix Compiler2: 66.71 KB object code size  34.0/22.9/[7.9]

